62959
 OpenBabel12012414433D

 45 49  0  0  1  0  0  0  0  0999 V2000
    2.3539   -3.4259    0.2514 F   0  0  0  0  0  0  0  0  0  0  0  0
   -1.5873    1.9187    2.2275 F   0  0  0  0  0  0  0  0  0  0  0  0
   -0.6586    5.8714   -0.2016 F   0  0  0  0  0  0  0  0  0  0  0  0
   -2.6814   -3.5790    0.0212 O   0  0  0  0  0  0  0  0  0  0  0  0
   -5.0359   -2.8047   -0.8526 O   0  0  0  0  0  0  0  0  0  0  0  0
   -5.7076   -0.8603    0.1466 O   0  0  0  0  0  0  0  0  0  0  0  0
    2.9926   -0.7621    0.1263 N   0  0  0  0  0  0  0  0  0  0  0  0
    7.1519    0.3211   -0.8347 N   0  0  0  0  0  0  0  0  0  0  0  0
    0.6803   -0.2124    0.0067 N   0  0  0  0  0  0  0  0  0  0  0  0
   -1.6761    0.3915   -0.1195 N   0  0  0  0  0  0  0  0  0  0  0  0
    4.8438    0.5858    0.2584 C   0  0  1  0  0  0  0  0  0  0  0  0
    5.2602   -0.8280    0.4656 C   0  0  2  0  0  0  0  0  0  0  0  0
    5.7459   -0.0790   -0.7457 C   0  0  2  0  0  0  0  0  0  0  0  0
    3.3593    0.6243    0.0627 C   0  0  0  0  0  0  0  0  0  0  0  0
    4.0436   -1.6996    0.4035 C   0  0  0  0  0  0  0  0  0  0  0  0
    1.6351   -1.1661    0.0976 C   0  0  0  0  0  0  0  0  0  0  0  0
    1.3729   -2.5190    0.1634 C   0  0  0  0  0  0  0  0  0  0  0  0
   -0.6262   -0.5914   -0.0121 C   0  0  0  0  0  0  0  0  0  0  0  0
    0.0462   -2.9184    0.1278 C   0  0  0  0  0  0  0  0  0  0  0  0
   -0.9627   -1.9550    0.0345 C   0  0  0  0  0  0  0  0  0  0  0  0
   -2.3755   -2.3945   -0.0327 C   0  0  0  0  0  0  0  0  0  0  0  0
   -2.9892   -0.0636   -0.2052 C   0  0  0  0  0  0  0  0  0  0  0  0
   -3.4002   -1.3365   -0.1719 C   0  0  0  0  0  0  0  0  0  0  0  0
   -1.4130    1.8030   -0.1384 C   0  0  0  0  0  0  0  0  0  0  0  0
   -1.3775    2.5335    1.0548 C   0  0  0  0  0  0  0  0  0  0  0  0
   -1.1917    2.4620   -1.3529 C   0  0  0  0  0  0  0  0  0  0  0  0
   -4.8360   -1.6088   -0.2592 C   0  0  0  0  0  0  0  0  0  0  0  0
   -1.1241    3.9049    1.0335 C   0  0  0  0  0  0  0  0  0  0  0  0
   -0.9383    3.8335   -1.3742 C   0  0  0  0  0  0  0  0  0  0  0  0
   -0.9044    4.5549   -0.1809 C   0  0  0  0  0  0  0  0  0  0  0  0
    5.2323    1.3578    0.9062 H   0  0  0  0  0  0  0  0  0  0  0  0
    5.9483   -1.0710    1.2620 H   0  0  0  0  0  0  0  0  0  0  0  0
    5.3137   -0.3476   -1.7041 H   0  0  0  0  0  0  0  0  0  0  0  0
    2.8920    1.2004    0.8691 H   0  0  0  0  0  0  0  0  0  0  0  0
    3.1028    1.0742   -0.9022 H   0  0  0  0  0  0  0  0  0  0  0  0
    4.1854   -2.4335   -0.3973 H   0  0  0  0  0  0  0  0  0  0  0  0
    3.9162   -2.1929    1.3737 H   0  0  0  0  0  0  0  0  0  0  0  0
    7.5171    0.5810    0.0808 H   0  0  0  0  0  0  0  0  0  0  0  0
    7.2422    1.1509   -1.4195 H   0  0  0  0  0  0  0  0  0  0  0  0
   -0.1850   -3.9790    0.1679 H   0  0  0  0  0  0  0  0  0  0  0  0
   -3.7041    0.7497   -0.3026 H   0  0  0  0  0  0  0  0  0  0  0  0
   -1.2149    1.9109   -2.2899 H   0  0  0  0  0  0  0  0  0  0  0  0
   -1.0972    4.4665    1.9625 H   0  0  0  0  0  0  0  0  0  0  0  0
   -0.7665    4.3397   -2.3195 H   0  0  0  0  0  0  0  0  0  0  0  0
   -5.9891   -3.0234   -0.9293 H   0  0  0  0  0  0  0  0  0  0  0  0
  1 17  1  0  0  0  0
  2 25  1  0  0  0  0
  3 30  1  0  0  0  0
  4 21  2  0  0  0  0
  5 27  1  0  0  0  0
  5 45  1  0  0  0  0
  6 27  2  0  0  0  0
  7 14  1  0  0  0  0
  7 15  1  0  0  0  0
  7 16  1  0  0  0  0
  8 13  1  0  0  0  0
  8 38  1  0  0  0  0
  8 39  1  0  0  0  0
  9 16  1  0  0  0  0
  9 18  2  0  0  0  0
 10 18  1  0  0  0  0
 10 22  1  0  0  0  0
 10 24  1  0  0  0  0
 11 12  1  0  0  0  0
 11 13  1  0  0  0  0
 11 14  1  0  0  0  0
 11 31  1  1  0  0  0
 12 13  1  0  0  0  0
 12 15  1  0  0  0  0
 12 32  1  1  0  0  0
 13 33  1  6  0  0  0
 14 34  1  0  0  0  0
 14 35  1  0  0  0  0
 15 36  1  0  0  0  0
 15 37  1  0  0  0  0
 16 17  2  0  0  0  0
 17 19  1  0  0  0  0
 18 20  1  0  0  0  0
 19 20  2  0  0  0  0
 19 40  1  0  0  0  0
 20 21  1  0  0  0  0
 21 23  1  0  0  0  0
 22 23  2  0  0  0  0
 22 41  1  0  0  0  0
 23 27  1  0  0  0  0
 24 25  2  0  0  0  0
 24 26  1  0  0  0  0
 25 28  1  0  0  0  0
 26 29  2  0  0  0  0
 26 42  1  0  0  0  0
 28 30  2  0  0  0  0
 28 43  1  0  0  0  0
 29 30  1  0  0  0  0
 29 44  1  0  0  0  0
M  END
>  <PUBCHEM_COMPOUND_CID>
62959

>  <PUBCHEM_CONFORMER_RMSD>
0.8

>  <PUBCHEM_CONFORMER_DIVERSEORDER>
2
3
5
6
4
1

>  <PUBCHEM_MMFF94_PARTIAL_CHARGES>
41
1 -0.19
10 -0.3
11 -0.19
12 -0.19
13 0.06
14 0.46
15 0.46
16 0.41
17 0.19
18 0.41
19 -0.15
2 -0.19
20 0.09
21 0.47
22 -0.05
23 0.03
24 0.1
25 0.19
26 -0.15
27 0.71
28 -0.15
29 -0.15
3 -0.19
30 0.19
31 0.1
32 0.1
33 0.1
38 0.36
39 0.36
4 -0.57
40 0.15
41 0.15
42 0.15
43 0.15
44 0.15
45 0.5
5 -0.65
6 -0.57
7 -0.84
8 -0.88
9 -0.62

>  <PUBCHEM_EFFECTIVE_ROTOR_COUNT>
3.8

>  <PUBCHEM_PHARMACOPHORE_FEATURES>
12
1 4 acceptor
1 5 acceptor
1 6 acceptor
1 7 cation
1 8 cation
1 8 donor
3 5 6 27 anion
3 9 10 18 cation
6 10 18 20 21 22 23 rings
6 24 25 26 28 29 30 rings
6 7 11 12 13 14 15 rings
6 9 16 17 18 19 20 rings

>  <PUBCHEM_HEAVY_ATOM_COUNT>
30

>  <PUBCHEM_ATOM_DEF_STEREO_COUNT>
2

>  <PUBCHEM_ATOM_UDEF_STEREO_COUNT>
0

>  <PUBCHEM_BOND_DEF_STEREO_COUNT>
0

>  <PUBCHEM_BOND_UDEF_STEREO_COUNT>
0

>  <PUBCHEM_ISOTOPIC_ATOM_COUNT>
0

>  <PUBCHEM_COMPONENT_COUNT>
1

>  <PUBCHEM_CACTVS_TAUTO_COUNT>
1

>  <PUBCHEM_CONFORMER_ID>
0000F5EF00000002

>  <PUBCHEM_MMFF94_ENERGY>
110.2343

>  <PUBCHEM_FEATURE_SELFOVERLAP>
60.987

>  <PUBCHEM_SHAPE_FINGERPRINT>
10006869 2 18266447716703978559
10670039 82 18337682940853520094
10937287 8 17762335817034384228
1100329 8 18193842763296155811
11045515 52 18334852848877961789
12107183 9 17613144180111103266
12166972 35 17895193367350755398
12788726 201 18260820480084586250
13140716 1 18337957916674604946
138480 1 15600887074043933924
14068700 675 18335420209863127292
14347332 77 18340202995318516350
14394314 77 18410579496101381401
14400156 266 18131083640869056301
14955137 171 18264781041643839171
15439362 3 17833260205895389829
15961568 22 18411705413203788014
16087824 20 18410575042869115941
18336668 15 18040998492129749023
19427546 62 17329144672641401245
19611394 137 17825401931087041834
20600515 1 18271257109243656141
20642791 178 17900827364079847253
21033650 10 18118429297210137310
21049683 271 18116434928629177591
21304253 13 18412829122914653529
21641784 216 18336558157000052988
21796203 349 17901986171968070723
22122407 14 15357992165725450918
221357 26 18272936029524919686
22907989 373 18192694683761238221
23558518 356 18045786684537747267
23559900 14 18050000292267771850
24771750 20 17831022686758007743
283562 15 18336263461739562386
3178227 256 18263938773468096859
335352 9 18410570734879898319
3380486 145 18336558118794006305
350125 39 18050853217054441603
4197921 191 18187646925907305076
469060 322 18410300198224639072
474 4 16971662625744329937
6677587 24 15294030043468526309

>  <PUBCHEM_SHAPE_MULTIPOLES>
558.03
10.74
6.09
1.01
14.09
7.89
0.15
-6.09
-1.7
-5.59
-0.2
-0.23
0.85
-0.79

>  <PUBCHEM_SHAPE_SELFOVERLAP>
1250.026

>  <PUBCHEM_SHAPE_VOLUME>
296.7

>  <PUBCHEM_COORDINATE_TYPE>
2
5
10

$$$$
60464
 OpenBabel12012414433D

 50 53  0  0  1  0  0  0  0  0999 V2000
    0.5941   -2.1391    0.7648 F   0  0  0  0  0  0  0  0  0  0  0  0
    2.1389    2.2568    0.0477 F   0  0  0  0  0  0  0  0  0  0  0  0
   -2.9128    2.5862   -0.4114 O   0  0  0  0  0  0  0  0  0  0  0  0
   -5.2757    1.7831   -1.0969 O   0  0  0  0  0  0  0  0  0  0  0  0
   -6.0706    0.1645    0.3099 O   0  0  0  0  0  0  0  0  0  0  0  0
   -2.1301   -1.3323    0.3944 N   0  0  0  0  0  0  0  0  0  0  0  0
    2.6677   -0.3892    0.5916 N   0  0  0  0  0  0  0  0  0  0  0  0
    5.2214    0.0533   -0.5669 N   0  0  0  0  0  0  0  0  0  0  0  0
   -0.3740    3.2088   -0.3335 N   0  0  0  0  0  0  0  0  0  0  0  0
   -1.9668   -2.7739    0.6828 C   0  0  0  0  0  0  0  0  0  0  0  0
   -1.0586   -3.6208   -0.1453 C   0  0  0  0  0  0  0  0  0  0  0  0
   -2.5455   -3.8064   -0.2266 C   0  0  0  0  0  0  0  0  0  0  0  0
   -1.0246   -0.4384    0.3114 C   0  0  0  0  0  0  0  0  0  0  0  0
    4.2037   -0.7358   -1.2783 C   0  0  2  0  0  0  0  0  0  0  0  0
    4.6120    1.0683    0.3067 C   0  0  1  0  0  0  0  0  0  0  0  0
    3.2424   -1.4157   -0.2848 C   0  0  0  0  0  0  0  0  0  0  0  0
    3.6675    0.3987    1.3161 C   0  0  0  0  0  0  0  0  0  0  0  0
    1.3623    0.0504    0.4066 C   0  0  0  0  0  0  0  0  0  0  0  0
   -3.4111   -0.8524    0.2018 C   0  0  0  0  0  0  0  0  0  0  0  0
   -1.2532    0.9267    0.0333 C   0  0  0  0  0  0  0  0  0  0  0  0
    0.3031   -0.8572    0.4961 C   0  0  0  0  0  0  0  0  0  0  0  0
   -0.1913    1.8351   -0.0560 C   0  0  0  0  0  0  0  0  0  0  0  0
   -3.7372    0.4181   -0.0659 C   0  0  0  0  0  0  0  0  0  0  0  0
    1.1155    1.3924    0.1314 C   0  0  0  0  0  0  0  0  0  0  0  0
   -2.6423    1.4164   -0.1693 C   0  0  0  0  0  0  0  0  0  0  0  0
    4.9011   -1.7783   -2.1492 C   0  0  0  0  0  0  0  0  0  0  0  0
    5.7171    1.8337    1.0305 C   0  0  0  0  0  0  0  0  0  0  0  0
   -5.1532    0.7469   -0.2407 C   0  0  0  0  0  0  0  0  0  0  0  0
   -1.9987   -2.9793    1.7481 H   0  0  0  0  0  0  0  0  0  0  0  0
   -0.4885   -4.3968    0.3513 H   0  0  0  0  0  0  0  0  0  0  0  0
   -0.5866   -3.2173   -1.0335 H   0  0  0  0  0  0  0  0  0  0  0  0
   -3.0349   -3.4943   -1.1411 H   0  0  0  0  0  0  0  0  0  0  0  0
   -2.9681   -4.6964    0.2234 H   0  0  0  0  0  0  0  0  0  0  0  0
    3.6364   -0.0655   -1.9369 H   0  0  0  0  0  0  0  0  0  0  0  0
    4.1028    1.7818   -0.3428 H   0  0  0  0  0  0  0  0  0  0  0  0
    2.4703   -1.9662   -0.8356 H   0  0  0  0  0  0  0  0  0  0  0  0
    3.7776   -2.1506    0.3304 H   0  0  0  0  0  0  0  0  0  0  0  0
    4.2320   -0.2742    1.9758 H   0  0  0  0  0  0  0  0  0  0  0  0
    3.1999    1.1413    1.9744 H   0  0  0  0  0  0  0  0  0  0  0  0
   -4.1743   -1.6194    0.2941 H   0  0  0  0  0  0  0  0  0  0  0  0
    5.7990   -0.5721   -0.0043 H   0  0  0  0  0  0  0  0  0  0  0  0
    5.5744   -1.3002   -2.8693 H   0  0  0  0  0  0  0  0  0  0  0  0
    5.4911   -2.4787   -1.5473 H   0  0  0  0  0  0  0  0  0  0  0  0
    4.1664   -2.3596   -2.7168 H   0  0  0  0  0  0  0  0  0  0  0  0
    5.2901    2.6238    1.6575 H   0  0  0  0  0  0  0  0  0  0  0  0
    6.3101    1.1753    1.6752 H   0  0  0  0  0  0  0  0  0  0  0  0
    6.3987    2.3084    0.3159 H   0  0  0  0  0  0  0  0  0  0  0  0
   -1.2969    3.5926   -0.4770 H   0  0  0  0  0  0  0  0  0  0  0  0
    0.4311    3.8197   -0.3844 H   0  0  0  0  0  0  0  0  0  0  0  0
   -6.2132    2.0340   -1.2403 H   0  0  0  0  0  0  0  0  0  0  0  0
  1 21  1  0  0  0  0
  2 24  1  0  0  0  0
  3 25  2  0  0  0  0
  4 28  1  0  0  0  0
  4 50  1  0  0  0  0
  5 28  2  0  0  0  0
  6 10  1  0  0  0  0
  6 13  1  0  0  0  0
  6 19  1  0  0  0  0
  7 16  1  0  0  0  0
  7 17  1  0  0  0  0
  7 18  1  0  0  0  0
  8 14  1  0  0  0  0
  8 15  1  0  0  0  0
  8 41  1  0  0  0  0
  9 22  1  0  0  0  0
  9 48  1  0  0  0  0
  9 49  1  0  0  0  0
 10 11  1  0  0  0  0
 10 12  1  0  0  0  0
 10 29  1  0  0  0  0
 11 12  1  0  0  0  0
 11 30  1  0  0  0  0
 11 31  1  0  0  0  0
 12 32  1  0  0  0  0
 12 33  1  0  0  0  0
 13 20  1  0  0  0  0
 13 21  2  0  0  0  0
 14 16  1  0  0  0  0
 14 26  1  0  0  0  0
 14 34  1  6  0  0  0
 15 17  1  0  0  0  0
 15 27  1  0  0  0  0
 15 35  1  6  0  0  0
 16 36  1  0  0  0  0
 16 37  1  0  0  0  0
 17 38  1  0  0  0  0
 17 39  1  0  0  0  0
 18 21  1  0  0  0  0
 18 24  2  0  0  0  0
 19 23  2  0  0  0  0
 19 40  1  0  0  0  0
 20 22  2  0  0  0  0
 20 25  1  0  0  0  0
 22 24  1  0  0  0  0
 23 25  1  0  0  0  0
 23 28  1  0  0  0  0
 26 42  1  0  0  0  0
 26 43  1  0  0  0  0
 26 44  1  0  0  0  0
 27 45  1  0  0  0  0
 27 46  1  0  0  0  0
 27 47  1  0  0  0  0
M  END
>  <PUBCHEM_COMPOUND_CID>
60464

>  <PUBCHEM_CONFORMER_RMSD>
0.8

>  <PUBCHEM_CONFORMER_DIVERSEORDER>
1
4
6
2
3
5
7

>  <PUBCHEM_MMFF94_PARTIAL_CHARGES>
36
1 -0.19
10 0.07
11 -0.2
12 -0.2
13 0.1
14 0.27
15 0.27
16 0.37
17 0.37
18 0.1
19 -0.05
2 -0.19
20 0.09
21 0.19
22 0.1
23 0.03
24 0.19
25 0.47
28 0.71
29 0.1
3 -0.57
30 0.1
31 0.1
32 0.1
33 0.1
4 -0.65
40 0.15
41 0.36
48 0.4
49 0.4
5 -0.57
50 0.5
6 -0.37
7 -0.84
8 -0.9
9 -0.9

>  <PUBCHEM_EFFECTIVE_ROTOR_COUNT>
4.8

>  <PUBCHEM_PHARMACOPHORE_FEATURES>
13
1 3 acceptor
1 4 acceptor
1 5 acceptor
1 6 cation
1 7 cation
1 8 cation
1 8 donor
1 9 cation
1 9 donor
3 4 5 28 anion
6 13 18 20 21 22 24 rings
6 6 13 19 20 23 25 rings
6 7 8 14 15 16 17 rings

>  <PUBCHEM_HEAVY_ATOM_COUNT>
28

>  <PUBCHEM_ATOM_DEF_STEREO_COUNT>
2

>  <PUBCHEM_ATOM_UDEF_STEREO_COUNT>
0

>  <PUBCHEM_BOND_DEF_STEREO_COUNT>
0

>  <PUBCHEM_BOND_UDEF_STEREO_COUNT>
0

>  <PUBCHEM_ISOTOPIC_ATOM_COUNT>
0

>  <PUBCHEM_COMPONENT_COUNT>
1

>  <PUBCHEM_CACTVS_TAUTO_COUNT>
3

>  <PUBCHEM_CONFORMER_ID>
0000EC3000000001

>  <PUBCHEM_MMFF94_ENERGY>
101.4976

>  <PUBCHEM_FEATURE_SELFOVERLAP>
66.063

>  <PUBCHEM_SHAPE_FINGERPRINT>
10319926 262 18268124597001793848
10411042 1 17688024632297875755
10498660 4 18335422348698499528
10693767 8 17986094233332604039
10906281 52 18342189868316023769
10967382 1 18336822001257235027
1100329 8 18336542841194368729
11112241 14 16986854973406046640
11578080 2 17129287934276475667
12011746 2 18409167676000049205
12035758 1 18337117847257731073
12236239 1 17240201028231711544
12788726 201 18200872864091665144
12838862 33 18263902441796147617
12969540 114 18335687313799767415
13140716 1 18191302887130171593
13402501 40 18342463612214445462
13533116 47 17346599647285756672
13544592 145 18271812298049027870
13583140 156 17202481289476518314
138480 1 17401479356647145203
140371 6 18271815648213794016
14790565 3 18266462014407669849
15042514 8 18263647436824052363
15099037 51 18410013234627571239
15131766 46 14997431597855801990
15196674 1 18335978658490238433
17980427 23 17677891426204331684
19141452 34 18340770437448415891
19319366 153 17603581915671573290
19591789 44 18122060905704859571
20028762 73 18272366517057097615
20642791 13 18122614217999666498
20645477 70 17346604037148560974
21033648 29 18341879784768214833
21267235 1 18408892836964251001
21279426 13 18268147565648524693
21307412 95 18057905583514723742
21344244 181 18059860524053163455
22122407 14 15141261883349245669
22182313 1 18270409398584901878
23227448 37 18338513148423777471
23557571 272 18340208608819198954
23558518 356 17681834351414245537
23559900 14 18341900688795341958
23569914 152 16831485884461902189
3004659 81 18042126458354268898
3178227 256 18334587850054974193
335352 9 18408882957769174621
34934 24 18335412491463939818
350125 39 18265052612747621115
3633792 109 18342452617879155473
5104073 3 18262797341909453329
58260988 647 17059509412873386590
59755656 215 18409731724948289558
9709674 26 18342458175133618302

>  <PUBCHEM_SHAPE_MULTIPOLES>
524.15
11.62
3.68
1.08
2.94
2.22
0.3
-2.96
1.83
-2.18
0.34
1.34
0.28
2.14

>  <PUBCHEM_SHAPE_SELFOVERLAP>
1142.816

>  <PUBCHEM_SHAPE_VOLUME>
284.5

>  <PUBCHEM_COORDINATE_TYPE>
2
5
10

$$$$
65947
 OpenBabel12012414433D

 52 56  0  0  1  0  0  0  0  0999 V2000
    4.7106    3.0769   -0.1651 S   0  0  0  0  0  0  0  0  0  0  0  0
    0.4375   -3.4431    0.1297 F   0  0  0  0  0  0  0  0  0  0  0  0
   -5.6682    1.0849    0.7613 O   0  0  0  0  0  0  0  0  0  0  0  0
    5.3161   -2.0712   -0.2319 O   0  0  0  0  0  0  0  0  0  0  0  0
   -7.2084    1.4794   -0.9391 O   0  0  0  0  0  0  0  0  0  0  0  0
    7.3360   -0.5209   -1.0156 O   0  0  0  0  0  0  0  0  0  0  0  0
    7.3899    1.4580    0.1294 O   0  0  0  0  0  0  0  0  0  0  0  0
   -6.5469    3.1809    0.4504 O   0  0  0  0  0  0  0  0  0  0  0  0
   -1.0012   -1.0773    0.2474 N   0  0  0  0  0  0  0  0  0  0  0  0
   -3.8231   -0.9472    0.6705 N   0  0  0  0  0  0  0  0  0  0  0  0
    3.2247    1.3354   -0.0583 N   0  0  0  0  0  0  0  0  0  0  0  0
   -1.7801    0.0234   -0.3281 C   0  0  0  0  0  0  0  0  0  0  0  0
   -1.6024   -1.7401    1.4116 C   0  0  0  0  0  0  0  0  0  0  0  0
   -3.2303   -0.4081   -0.5594 C   0  0  0  0  0  0  0  0  0  0  0  0
   -3.0578   -2.1154    1.1234 C   0  0  0  0  0  0  0  0  0  0  0  0
    0.3943   -1.0685    0.1437 C   0  0  0  0  0  0  0  0  0  0  0  0
    2.4681    0.1607   -0.0061 C   0  0  0  0  0  0  0  0  0  0  0  0
    2.9386    2.7172   -0.0316 C   0  0  1  0  0  0  0  0  0  0  0  0
    4.5192    1.3632   -0.1566 C   0  0  0  0  0  0  0  0  0  0  0  0
   -5.2238   -1.3056    0.4508 C   0  0  0  0  0  0  0  0  0  0  0  0
    1.0768    0.1486    0.0982 C   0  0  0  0  0  0  0  0  0  0  0  0
    3.1715   -1.0640   -0.0643 C   0  0  0  0  0  0  0  0  0  0  0  0
    1.0956   -2.2754    0.0858 C   0  0  0  0  0  0  0  0  0  0  0  0
    5.3408    0.3061   -0.2230 C   0  0  0  0  0  0  0  0  0  0  0  0
    2.4870   -2.2790   -0.0182 C   0  0  0  0  0  0  0  0  0  0  0  0
    4.6673   -1.0333   -0.1775 C   0  0  0  0  0  0  0  0  0  0  0  0
    2.3900    3.1571    1.3029 C   0  0  0  0  0  0  0  0  0  0  0  0
   -5.9324   -0.0631    0.0414 C   0  0  0  0  0  0  0  0  0  0  0  0
   -6.8031    0.1599   -0.9198 C   0  0  0  0  0  0  0  0  0  0  0  0
    6.7810    0.5044   -0.3315 C   0  0  0  0  0  0  0  0  0  0  0  0
   -7.3873   -0.7475   -1.9366 C   0  0  0  0  0  0  0  0  0  0  0  0
   -6.4798    2.0037    0.1163 C   0  0  0  0  0  0  0  0  0  0  0  0
   -1.7586    0.8899    0.3454 H   0  0  0  0  0  0  0  0  0  0  0  0
   -1.3598    0.3314   -1.2939 H   0  0  0  0  0  0  0  0  0  0  0  0
   -1.0650   -2.6507    1.6965 H   0  0  0  0  0  0  0  0  0  0  0  0
   -1.5546   -1.0608    2.2730 H   0  0  0  0  0  0  0  0  0  0  0  0
   -3.7494    0.4799   -0.9348 H   0  0  0  0  0  0  0  0  0  0  0  0
   -3.2607   -1.1594   -1.3610 H   0  0  0  0  0  0  0  0  0  0  0  0
   -3.0881   -2.9157    0.3716 H   0  0  0  0  0  0  0  0  0  0  0  0
   -3.4970   -2.5161    2.0450 H   0  0  0  0  0  0  0  0  0  0  0  0
    2.3425    3.0434   -0.8911 H   0  0  0  0  0  0  0  0  0  0  0  0
   -5.3255   -2.0978   -0.2998 H   0  0  0  0  0  0  0  0  0  0  0  0
   -5.6698   -1.6676    1.3848 H   0  0  0  0  0  0  0  0  0  0  0  0
    0.5425    1.0922    0.1440 H   0  0  0  0  0  0  0  0  0  0  0  0
    3.0131   -3.2279   -0.0620 H   0  0  0  0  0  0  0  0  0  0  0  0
    2.9523    2.7564    2.1553 H   0  0  0  0  0  0  0  0  0  0  0  0
    2.3993    4.2503    1.3842 H   0  0  0  0  0  0  0  0  0  0  0  0
    1.3472    2.8472    1.4250 H   0  0  0  0  0  0  0  0  0  0  0  0
   -7.0276   -1.7747   -1.8300 H   0  0  0  0  0  0  0  0  0  0  0  0
   -7.1304   -0.4034   -2.9433 H   0  0  0  0  0  0  0  0  0  0  0  0
   -8.4781   -0.7641   -1.8470 H   0  0  0  0  0  0  0  0  0  0  0  0
    8.3073   -0.4191   -1.1074 H   0  0  0  0  0  0  0  0  0  0  0  0
  1 18  1  0  0  0  0
  1 19  1  0  0  0  0
  2 23  1  0  0  0  0
  3 28  1  0  0  0  0
  3 32  1  0  0  0  0
  4 26  2  0  0  0  0
  5 29  1  0  0  0  0
  5 32  1  0  0  0  0
  6 30  1  0  0  0  0
  6 52  1  0  0  0  0
  7 30  2  0  0  0  0
  8 32  2  0  0  0  0
  9 12  1  0  0  0  0
  9 13  1  0  0  0  0
  9 16  1  0  0  0  0
 10 14  1  0  0  0  0
 10 15  1  0  0  0  0
 10 20  1  0  0  0  0
 11 17  1  0  0  0  0
 11 18  1  0  0  0  0
 11 19  1  0  0  0  0
 12 14  1  0  0  0  0
 12 33  1  0  0  0  0
 12 34  1  0  0  0  0
 13 15  1  0  0  0  0
 13 35  1  0  0  0  0
 13 36  1  0  0  0  0
 14 37  1  0  0  0  0
 14 38  1  0  0  0  0
 15 39  1  0  0  0  0
 15 40  1  0  0  0  0
 16 21  1  0  0  0  0
 16 23  2  0  0  0  0
 17 21  2  0  0  0  0
 17 22  1  0  0  0  0
 18 27  1  0  0  0  0
 18 41  1  6  0  0  0
 19 24  2  0  0  0  0
 20 28  1  0  0  0  0
 20 42  1  0  0  0  0
 20 43  1  0  0  0  0
 21 44  1  0  0  0  0
 22 25  2  0  0  0  0
 22 26  1  0  0  0  0
 23 25  1  0  0  0  0
 24 26  1  0  0  0  0
 24 30  1  0  0  0  0
 25 45  1  0  0  0  0
 27 46  1  0  0  0  0
 27 47  1  0  0  0  0
 27 48  1  0  0  0  0
 28 29  2  0  0  0  0
 29 31  1  0  0  0  0
 31 49  1  0  0  0  0
 31 50  1  0  0  0  0
 31 51  1  0  0  0  0
M  END
>  <PUBCHEM_COMPOUND_CID>
65947

>  <PUBCHEM_CONFORMER_RMSD>
0.8

>  <PUBCHEM_CONFORMER_DIVERSEORDER>
1
32
22
92
52
86
19
62
79
77
50
76
13
105
101
37
75
73
78
65
109
71
63
57
85
10
108
15
82
67
68
87
18
20
44
8
107
47
110
64
98
33
30
11
72
31
84
66
17
80
12
56
102
97
29
99
16
103
49
53
81
91
23
83
43
100
36
41
28
106
104
69
42
21
90
60
27
54
94
70
24
45
58
88
9
93
95
96
38
46
48
40
61
35
51
26
59
74
34
7
25
5
3
39
89
55
4
6
2
14

>  <PUBCHEM_MMFF94_PARTIAL_CHARGES>
34
1 -0.29
10 -0.81
11 -0.44
12 0.37
13 0.37
14 0.27
15 0.27
16 0.1
17 0.1
18 0.46
19 0.14
2 -0.19
20 0.41
21 -0.15
22 0.09
23 0.19
24 0.06
25 -0.15
26 0.47
28 -0.06
29 -0.06
3 -0.23
30 0.71
31 0.14
32 0.87
4 -0.57
44 0.15
45 0.15
5 -0.23
52 0.5
6 -0.65
7 -0.57
8 -0.57
9 -0.84

>  <PUBCHEM_EFFECTIVE_ROTOR_COUNT>
5.6

>  <PUBCHEM_PHARMACOPHORE_FEATURES>
12
1 10 cation
1 11 cation
1 4 acceptor
1 6 acceptor
1 7 acceptor
1 9 cation
3 6 7 30 anion
4 1 11 18 19 rings
5 3 5 28 29 32 rings
6 11 17 19 22 24 26 rings
6 16 17 21 22 23 25 rings
6 9 10 12 13 14 15 rings

>  <PUBCHEM_HEAVY_ATOM_COUNT>
32

>  <PUBCHEM_ATOM_DEF_STEREO_COUNT>
0

>  <PUBCHEM_ATOM_UDEF_STEREO_COUNT>
1

>  <PUBCHEM_BOND_DEF_STEREO_COUNT>
0

>  <PUBCHEM_BOND_UDEF_STEREO_COUNT>
0

>  <PUBCHEM_ISOTOPIC_ATOM_COUNT>
0

>  <PUBCHEM_COMPONENT_COUNT>
1

>  <PUBCHEM_CACTVS_TAUTO_COUNT>
1

>  <PUBCHEM_CONFORMER_ID>
0001019B00000001

>  <PUBCHEM_MMFF94_ENERGY>
96.6473

>  <PUBCHEM_FEATURE_SELFOVERLAP>
61.216

>  <PUBCHEM_SHAPE_FINGERPRINT>
10411042 1 17905607697478838186
10595046 47 18341607102206392735
10763959 59 18261395580611328708
10835480 77 18335138691736205003
11089746 13 18412261727516918175
11456790 92 18259982639803257144
12838862 33 18341602764289267896
13402501 40 18334012808803418980
13878862 14 18337374020149681620
14117953 113 18271815610476577254
14556957 393 16916800582195653025
14931854 50 18200890551447529868
15064981 113 17203345406958849140
15142383 8 18113898282574335912
15183329 4 18411136931132003121
15289351 153 18410286996006484048
1577012 14 18341892953379822329
16087824 20 18410015403992802860
17780758 139 11169909477836171799
18335252 114 18412821383072155206
19611394 137 17823994531456168259
20715895 44 18410294739864115096
21033648 144 18114175308165700303
21033648 29 18263073482921676112
21133410 127 17540809933691350797
21298829 104 18411985740965372297
21792934 111 18412254023041785418
22122407 14 18342185466195975089
221357 26 18412262826997007972
23559900 14 18335701684422755457
23576562 1 18269274745349672294
255183 451 17913496732068008342
2838139 119 18412262835771331381
335352 9 18411421735451835526
350125 39 18408323276623761340
4073 2 17968664924852691570
4144715 1 17751371800408593097
4169191 19 18334577936679708389
504579 68 18202270417365804717
5104073 3 17966971617222452731
58902169 19 17988636406814507175
59755656 215 18335140877810917580

>  <PUBCHEM_SHAPE_MULTIPOLES>
604.96
21.74
3.42
1.03
17.2
1.37
0.07
9.86
6.09
-1.12
-0.78
1.32
-0.06
0.54

>  <PUBCHEM_SHAPE_SELFOVERLAP>
1327.085

>  <PUBCHEM_SHAPE_VOLUME>
332.2

>  <PUBCHEM_COORDINATE_TYPE>
2
5
10

$$$$
4583
 OpenBabel12012414433D

 46 49  0  0  1  0  0  0  0  0999 V2000
   -1.6951   -2.9042    0.0812 F   0  0  0  0  0  0  0  0  0  0  0  0
   -1.0003    1.7712   -0.1345 O   0  0  0  0  0  0  0  0  0  0  0  0
    3.3310   -2.4092   -0.0440 O   0  0  0  0  0  0  0  0  0  0  0  0
    5.6229   -1.2858    0.5635 O   0  0  0  0  0  0  0  0  0  0  0  0
    5.9711    0.6585   -0.5893 O   0  0  0  0  0  0  0  0  0  0  0  0
   -2.7212   -0.3460    0.0011 N   0  0  0  0  0  0  0  0  0  0  0  0
    1.8461    1.3819   -0.0839 N   0  0  0  0  0  0  0  0  0  0  0  0
   -5.5700   -0.1483   -0.0651 N   0  0  0  0  0  0  0  0  0  0  0  0
   -3.5162   -0.8102    1.1421 C   0  0  0  0  0  0  0  0  0  0  0  0
   -3.4259   -0.2962   -1.2861 C   0  0  0  0  0  0  0  0  0  0  0  0
    1.2590    2.7213    0.0097 C   0  0  1  0  0  0  0  0  0  0  0  0
   -1.3383   -0.5598   -0.0143 C   0  0  0  0  0  0  0  0  0  0  0  0
    0.9383    0.3039   -0.0723 C   0  0  0  0  0  0  0  0  0  0  0  0
   -0.4489    0.5143   -0.0823 C   0  0  0  0  0  0  0  0  0  0  0  0
   -4.8482   -0.0590    1.2101 C   0  0  0  0  0  0  0  0  0  0  0  0
   -4.7601    0.4392   -1.1395 C   0  0  0  0  0  0  0  0  0  0  0  0
   -0.0973    2.7283   -0.6970 C   0  0  0  0  0  0  0  0  0  0  0  0
    1.4126   -1.0212   -0.0426 C   0  0  0  0  0  0  0  0  0  0  0  0
   -0.8500   -1.8647    0.0263 C   0  0  0  0  0  0  0  0  0  0  0  0
    3.2036    1.1325   -0.0844 C   0  0  0  0  0  0  0  0  0  0  0  0
    0.5242   -2.1007    0.0052 C   0  0  0  0  0  0  0  0  0  0  0  0
    1.1460    3.1440    1.4768 C   0  0  0  0  0  0  0  0  0  0  0  0
    2.8785   -1.2713   -0.0543 C   0  0  0  0  0  0  0  0  0  0  0  0
   -6.8639    0.5268    0.0294 C   0  0  0  0  0  0  0  0  0  0  0  0
    3.7706   -0.0805   -0.0765 C   0  0  0  0  0  0  0  0  0  0  0  0
    5.2313   -0.1651   -0.0794 C   0  0  0  0  0  0  0  0  0  0  0  0
   -3.7040   -1.8875    1.0546 H   0  0  0  0  0  0  0  0  0  0  0  0
   -2.9702   -0.6429    2.0787 H   0  0  0  0  0  0  0  0  0  0  0  0
   -2.8199    0.2250   -2.0374 H   0  0  0  0  0  0  0  0  0  0  0  0
   -3.5936   -1.3179   -1.6502 H   0  0  0  0  0  0  0  0  0  0  0  0
    1.9078    3.4427   -0.5040 H   0  0  0  0  0  0  0  0  0  0  0  0
   -5.4497   -0.5000    2.0142 H   0  0  0  0  0  0  0  0  0  0  0  0
   -4.6637    0.9902    1.4783 H   0  0  0  0  0  0  0  0  0  0  0  0
   -4.5722    1.5040   -0.9458 H   0  0  0  0  0  0  0  0  0  0  0  0
   -5.2957    0.3706   -2.0941 H   0  0  0  0  0  0  0  0  0  0  0  0
   -0.5669    3.7140   -0.6062 H   0  0  0  0  0  0  0  0  0  0  0  0
    0.0124    2.5231   -1.7704 H   0  0  0  0  0  0  0  0  0  0  0  0
    3.7951    2.0425   -0.0841 H   0  0  0  0  0  0  0  0  0  0  0  0
    0.8817   -3.1261    0.0329 H   0  0  0  0  0  0  0  0  0  0  0  0
    2.1341    3.1737    1.9488 H   0  0  0  0  0  0  0  0  0  0  0  0
    0.7058    4.1433    1.5575 H   0  0  0  0  0  0  0  0  0  0  0  0
    0.5270    2.4530    2.0591 H   0  0  0  0  0  0  0  0  0  0  0  0
   -6.7604    1.5935    0.2594 H   0  0  0  0  0  0  0  0  0  0  0  0
   -7.4822    0.0649    0.8071 H   0  0  0  0  0  0  0  0  0  0  0  0
   -7.4177    0.4290   -0.9108 H   0  0  0  0  0  0  0  0  0  0  0  0
    6.5993   -1.3780    0.5820 H   0  0  0  0  0  0  0  0  0  0  0  0
  1 19  1  0  0  0  0
  2 14  1  0  0  0  0
  2 17  1  0  0  0  0
  3 23  2  0  0  0  0
  4 26  1  0  0  0  0
  4 46  1  0  0  0  0
  5 26  2  0  0  0  0
  6  9  1  0  0  0  0
  6 10  1  0  0  0  0
  6 12  1  0  0  0  0
  7 11  1  0  0  0  0
  7 13  1  0  0  0  0
  7 20  1  0  0  0  0
  8 15  1  0  0  0  0
  8 16  1  0  0  0  0
  8 24  1  0  0  0  0
  9 15  1  0  0  0  0
  9 27  1  0  0  0  0
  9 28  1  0  0  0  0
 10 16  1  0  0  0  0
 10 29  1  0  0  0  0
 10 30  1  0  0  0  0
 11 17  1  0  0  0  0
 11 22  1  0  0  0  0
 11 31  1  6  0  0  0
 12 14  1  0  0  0  0
 12 19  2  0  0  0  0
 13 14  2  0  0  0  0
 13 18  1  0  0  0  0
 15 32  1  0  0  0  0
 15 33  1  0  0  0  0
 16 34  1  0  0  0  0
 16 35  1  0  0  0  0
 17 36  1  0  0  0  0
 17 37  1  0  0  0  0
 18 21  2  0  0  0  0
 18 23  1  0  0  0  0
 19 21  1  0  0  0  0
 20 25  2  0  0  0  0
 20 38  1  0  0  0  0
 21 39  1  0  0  0  0
 22 40  1  0  0  0  0
 22 41  1  0  0  0  0
 22 42  1  0  0  0  0
 23 25  1  0  0  0  0
 24 43  1  0  0  0  0
 24 44  1  0  0  0  0
 24 45  1  0  0  0  0
 25 26  1  0  0  0  0
M  END
>  <PUBCHEM_COMPOUND_CID>
4583

>  <PUBCHEM_CONFORMER_RMSD>
0.8

>  <PUBCHEM_CONFORMER_DIVERSEORDER>
1
5
2
3
4

>  <PUBCHEM_MMFF94_PARTIAL_CHARGES>
28
1 -0.19
10 0.37
11 0.37
12 0.1
13 0.1
14 0.08
15 0.27
16 0.27
17 0.28
18 0.09
19 0.19
2 -0.36
20 -0.05
21 -0.15
23 0.47
24 0.27
25 0.03
26 0.71
3 -0.57
38 0.15
39 0.15
4 -0.65
46 0.5
5 -0.57
6 -0.84
7 -0.57
8 -0.81
9 0.37

>  <PUBCHEM_EFFECTIVE_ROTOR_COUNT>
3.8

>  <PUBCHEM_PHARMACOPHORE_FEATURES>
12
1 2 acceptor
1 3 acceptor
1 4 acceptor
1 5 acceptor
1 6 cation
1 7 cation
1 8 cation
3 4 5 26 anion
6 12 13 14 18 19 21 rings
6 2 7 11 13 14 17 rings
6 6 8 9 10 15 16 rings
6 7 13 18 20 23 25 rings

>  <PUBCHEM_HEAVY_ATOM_COUNT>
26

>  <PUBCHEM_ATOM_DEF_STEREO_COUNT>
0

>  <PUBCHEM_ATOM_UDEF_STEREO_COUNT>
1

>  <PUBCHEM_BOND_DEF_STEREO_COUNT>
0

>  <PUBCHEM_BOND_UDEF_STEREO_COUNT>
0

>  <PUBCHEM_ISOTOPIC_ATOM_COUNT>
0

>  <PUBCHEM_COMPONENT_COUNT>
1

>  <PUBCHEM_CACTVS_TAUTO_COUNT>
1

>  <PUBCHEM_CONFORMER_ID>
000011E700000001

>  <PUBCHEM_MMFF94_ENERGY>
89.0159

>  <PUBCHEM_FEATURE_SELFOVERLAP>
61.046

>  <PUBCHEM_SHAPE_FINGERPRINT>
10411042 1 18122626042039870686
10688039 33 18040998397361374108
10906281 52 18341630208286056134
10967382 1 18410292514833899582
1100329 8 18339080500898265522
11421498 54 13334723614178794797
11578080 2 17129563898778542306
11646440 116 18343587347415332753
12011746 2 18411140233740073668
12035758 1 18336818775235766024
12166972 35 18131067186474877113
12236239 1 17775565347472144639
12516196 113 18272087201593815904
12553582 1 18411130351405310874
12760667 363 18340484466042028766
12788726 201 18335980862098469136
12838862 33 18338218441196464868
13140716 1 18267304429060459682
13402501 40 18260827077671252285
13862211 1 18410851053771583334
13899415 154 18342747329390794800
14170010 4 18412542128741352849
14178342 30 17690833888394901225
14347332 77 17983582905920016310
14464042 87 18131356271838295569
14790565 3 18410301276298593324
14849402 71 18341057423190668049
15081414 286 18341058436395968734
15099037 51 18409729581759582791
15196674 1 18337673147473665878
15475509 8 17844273781415028484
15527383 91 18412545418443779761
15927050 60 17765996482538688996
1601671 61 18411419513904008938
16087824 20 18337392626412926325
16945 1 18411417358083737868
17492 89 17976535019079671010
17980427 23 17417823841511623265
17980427 26 17557122206475116292
18681886 176 17988634238246743347
19141452 34 18272368706540534230
19591789 44 18266178335732278485
20510252 161 18268991986594392952
20642791 105 18118953695157736456
20642791 178 17898581031880946764
20832881 197 18341891896153625657
21029758 11 18342453733947763936
21033648 29 18041543815817429797
21033650 10 15911673235486047235
21236236 1 18339080372234278549
21267235 1 18336831884394084574
21279426 13 18191302668034098501
21285901 2 18341337678190172134
21641784 216 18115324280109674740
21792934 111 18338504267080626352
21792961 116 17968093071790514574
221357 26 18409440363584812525
23184049 59 18411986879405615879
2334 1 17762053646240757988
23352939 185 18273216378655716392
23402539 116 18343295972491616239
23557571 272 18201447918085404324
23559900 14 18270675502010758504
23569914 2 15578895187836089284
23569943 247 17629500595773068606
3004659 81 18113618959413345798
3178227 256 18335432265978414115
335352 9 18410575106385939638
345986 75 18130218238384773256
34934 24 18409726287920989486
350125 39 18409730634417518989
4340502 62 16443064984866435626
5104073 3 18265892634893105146
59755656 215 18338804416707203654
6328613 192 18339370772058162704

>  <PUBCHEM_SHAPE_MULTIPOLES>
489.37
12.21
2.83
0.96
6.3
1.07
-0.1
-1.27
0.18
-1.72
-0.41
0.77
0.29
0.24

>  <PUBCHEM_SHAPE_SELFOVERLAP>
1072.596

>  <PUBCHEM_SHAPE_VOLUME>
265.8

>  <PUBCHEM_COORDINATE_TYPE>
2
5
10

$$$$
4539
 OpenBabel12012414433D

 41 43  0  0  0  0  0  0  0  0999 V2000
   -2.1109   -2.6635   -0.3503 F   0  0  0  0  0  0  0  0  0  0  0  0
    2.8988   -2.2970   -0.2189 O   0  0  0  0  0  0  0  0  0  0  0  0
    5.2330   -1.1914   -0.6774 O   0  0  0  0  0  0  0  0  0  0  0  0
    5.6358    0.5750    0.7183 O   0  0  0  0  0  0  0  0  0  0  0  0
   -3.0806   -0.0884   -0.0133 N   0  0  0  0  0  0  0  0  0  0  0  0
   -5.8499    0.5568    0.2392 N   0  0  0  0  0  0  0  0  0  0  0  0
    1.5423    1.5161    0.2831 N   0  0  0  0  0  0  0  0  0  0  0  0
   -3.8982   -0.7432    1.0170 C   0  0  0  0  0  0  0  0  0  0  0  0
   -3.5809    1.2032   -0.4964 C   0  0  0  0  0  0  0  0  0  0  0  0
   -5.3663   -0.7768    0.5936 C   0  0  0  0  0  0  0  0  0  0  0  0
   -5.0609    1.1010   -0.8646 C   0  0  0  0  0  0  0  0  0  0  0  0
   -1.7056   -0.3487   -0.0262 C   0  0  0  0  0  0  0  0  0  0  0  0
    0.5900    0.4821    0.1254 C   0  0  0  0  0  0  0  0  0  0  0  0
   -0.7988    0.7042    0.1330 C   0  0  0  0  0  0  0  0  0  0  0  0
    1.0295   -0.8505   -0.0506 C   0  0  0  0  0  0  0  0  0  0  0  0
   -1.2467   -1.6502   -0.1973 C   0  0  0  0  0  0  0  0  0  0  0  0
    0.1209   -1.9057   -0.2101 C   0  0  0  0  0  0  0  0  0  0  0  0
    1.0700    2.8864    0.4647 C   0  0  0  0  0  0  0  0  0  0  0  0
    2.4852   -1.1540   -0.0691 C   0  0  0  0  0  0  0  0  0  0  0  0
    2.8903    1.2068    0.2597 C   0  0  0  0  0  0  0  0  0  0  0  0
    3.4169   -0.0124    0.1003 C   0  0  0  0  0  0  0  0  0  0  0  0
    0.9126    3.5996   -0.8622 C   0  0  0  0  0  0  0  0  0  0  0  0
    4.8738   -0.1493    0.1021 C   0  0  0  0  0  0  0  0  0  0  0  0
   -3.7925   -0.1908    1.9599 H   0  0  0  0  0  0  0  0  0  0  0  0
   -3.5751   -1.7711    1.2131 H   0  0  0  0  0  0  0  0  0  0  0  0
   -3.0298    1.5248   -1.3890 H   0  0  0  0  0  0  0  0  0  0  0  0
   -3.4514    1.9684    0.2796 H   0  0  0  0  0  0  0  0  0  0  0  0
   -5.4999   -1.4607   -0.2540 H   0  0  0  0  0  0  0  0  0  0  0  0
   -5.9702   -1.1676    1.4198 H   0  0  0  0  0  0  0  0  0  0  0  0
   -5.4386    2.0975   -1.1179 H   0  0  0  0  0  0  0  0  0  0  0  0
   -5.1859    0.4742   -1.7567 H   0  0  0  0  0  0  0  0  0  0  0  0
   -6.8274    0.4956   -0.0443 H   0  0  0  0  0  0  0  0  0  0  0  0
   -1.1895    1.7067    0.2644 H   0  0  0  0  0  0  0  0  0  0  0  0
    0.4604   -2.9289   -0.3451 H   0  0  0  0  0  0  0  0  0  0  0  0
    0.1638    2.9583    1.0749 H   0  0  0  0  0  0  0  0  0  0  0  0
    1.8145    3.4434    1.0508 H   0  0  0  0  0  0  0  0  0  0  0  0
    3.5212    2.0821    0.3811 H   0  0  0  0  0  0  0  0  0  0  0  0
    1.8548    3.6116   -1.4205 H   0  0  0  0  0  0  0  0  0  0  0  0
    0.1596    3.1146   -1.4916 H   0  0  0  0  0  0  0  0  0  0  0  0
    0.6018    4.6367   -0.7018 H   0  0  0  0  0  0  0  0  0  0  0  0
    6.2058   -1.3155   -0.7015 H   0  0  0  0  0  0  0  0  0  0  0  0
  1 16  1  0  0  0  0
  2 19  2  0  0  0  0
  3 23  1  0  0  0  0
  3 41  1  0  0  0  0
  4 23  2  0  0  0  0
  5  8  1  0  0  0  0
  5  9  1  0  0  0  0
  5 12  1  0  0  0  0
  6 10  1  0  0  0  0
  6 11  1  0  0  0  0
  6 32  1  0  0  0  0
  7 13  1  0  0  0  0
  7 18  1  0  0  0  0
  7 20  1  0  0  0  0
  8 10  1  0  0  0  0
  8 24  1  0  0  0  0
  8 25  1  0  0  0  0
  9 11  1  0  0  0  0
  9 26  1  0  0  0  0
  9 27  1  0  0  0  0
 10 28  1  0  0  0  0
 10 29  1  0  0  0  0
 11 30  1  0  0  0  0
 11 31  1  0  0  0  0
 12 14  1  0  0  0  0
 12 16  2  0  0  0  0
 13 14  2  0  0  0  0
 13 15  1  0  0  0  0
 14 33  1  0  0  0  0
 15 17  2  0  0  0  0
 15 19  1  0  0  0  0
 16 17  1  0  0  0  0
 17 34  1  0  0  0  0
 18 22  1  0  0  0  0
 18 35  1  0  0  0  0
 18 36  1  0  0  0  0
 19 21  1  0  0  0  0
 20 21  2  0  0  0  0
 20 37  1  0  0  0  0
 21 23  1  0  0  0  0
 22 38  1  0  0  0  0
 22 39  1  0  0  0  0
 22 40  1  0  0  0  0
M  END
>  <PUBCHEM_COMPOUND_CID>
4539

>  <PUBCHEM_CONFORMER_RMSD>
0.8

>  <PUBCHEM_CONFORMER_DIVERSEORDER>
1
5
3
4
2

>  <PUBCHEM_MMFF94_PARTIAL_CHARGES>
27
1 -0.19
10 0.27
11 0.27
12 0.1
13 0.1
14 -0.15
15 0.09
16 0.19
17 -0.15
18 0.37
19 0.47
2 -0.57
20 -0.05
21 0.03
23 0.71
3 -0.65
32 0.36
33 0.15
34 0.15
37 0.15
4 -0.57
41 0.5
5 -0.84
6 -0.9
7 -0.57
8 0.37
9 0.37

>  <PUBCHEM_EFFECTIVE_ROTOR_COUNT>
4.2

>  <PUBCHEM_PHARMACOPHORE_FEATURES>
11
1 2 acceptor
1 3 acceptor
1 4 acceptor
1 5 cation
1 6 cation
1 6 donor
1 7 cation
3 3 4 23 anion
6 12 13 14 15 16 17 rings
6 5 6 8 9 10 11 rings
6 7 13 15 19 20 21 rings

>  <PUBCHEM_HEAVY_ATOM_COUNT>
23

>  <PUBCHEM_ATOM_DEF_STEREO_COUNT>
0

>  <PUBCHEM_ATOM_UDEF_STEREO_COUNT>
0

>  <PUBCHEM_BOND_DEF_STEREO_COUNT>
0

>  <PUBCHEM_BOND_UDEF_STEREO_COUNT>
0

>  <PUBCHEM_ISOTOPIC_ATOM_COUNT>
0

>  <PUBCHEM_COMPONENT_COUNT>
1

>  <PUBCHEM_CACTVS_TAUTO_COUNT>
1

>  <PUBCHEM_CONFORMER_ID>
000011BB00000001

>  <PUBCHEM_MMFF94_ENERGY>
72.0128

>  <PUBCHEM_FEATURE_SELFOVERLAP>
55.91

>  <PUBCHEM_SHAPE_FINGERPRINT>
10 15 18335133241776037424
10366900 7 17458341966303003155
10688039 33 18113618941490016204
10967382 1 18411981338771300942
1100329 8 18339924934397012304
11578080 2 16915081065773075106
11646440 116 18273218603211412033
12011746 2 18411982429576845892
12035758 1 18409724079911933552
12166972 35 18130506422522724425
12293681 4 18040443187007546681
12403259 415 18408597063814889885
12507557 5 18411421722123958289
12553582 1 18337941342675241410
12788726 201 18261673650159008992
12838862 33 18340466920905523864
13140716 1 18196371648139092248
13402501 40 18335135354757749341
13533116 47 17060342877685197534
13583140 156 18041002860423095627
13862211 1 18412539890731166538
14170010 4 18413387640145307801
14341114 176 18410018758066420361
14790565 3 18339367370301658952
15081414 286 18342464711910552780
15099037 51 18411699893748507213
15131766 46 14403459994242429530
15196674 1 18340767156146188162
1601671 61 18410573981083473576
17349148 13 17704077295824859683
18785283 64 18117565234545244332
19141452 34 18273212032022250958
19591789 44 18266177236210094719
200 152 17917707985875775065
20642791 178 18117845632133919244
21033648 29 18130490969077516769
21267235 1 18340778057105722142
21279426 13 18195528090871449444
21285901 2 18270687442035295828
21421861 104 17969491607715938250
21641784 216 18043267772714329420
21709351 56 18410567414616340797
221357 26 18410849924569893525
23227448 37 18340767152088844951
23366157 5 17826226586862432004
23402539 116 18272643545734399527
23558518 356 17902506326487688778
23559900 14 18343014540480409329
3004659 81 18187086118773494174
335352 9 18412544323205689366
34934 24 18411692188978442538
350125 39 18267026244361117299
3545911 37 18342459248443217898
4340502 62 17022624152320584642
5104073 3 18268425909504153058
59755656 215 18339365154784161502
7495541 125 18040723609796117721
7832392 63 18340761641281631566
9709674 26 18265616678854663899
9981440 41 17186152613954803736
9999458 23 18186802525454441797

>  <PUBCHEM_SHAPE_MULTIPOLES>
433.5
11.36
2.84
0.8
4
1.67
-0.01
-0.79
-0.74
-0.97
0.52
0.25
0.12
0.78

>  <PUBCHEM_SHAPE_SELFOVERLAP>
934.79

>  <PUBCHEM_SHAPE_VOLUME>
238.3

>  <PUBCHEM_COORDINATE_TYPE>
2
5
10

$$$$
152946
 OpenBabel12012414433D

 53 57  0  0  1  0  0  0  0  0999 V2000
   -1.4919    2.8370   -0.0982 F   0  0  0  0  0  0  0  0  0  0  0  0
   -0.4618   -1.7666   -0.3616 O   0  0  0  0  0  0  0  0  0  0  0  0
    3.5304    2.7033    0.2066 O   0  0  0  0  0  0  0  0  0  0  0  0
    5.8572    1.7382    0.9252 O   0  0  0  0  0  0  0  0  0  0  0  0
    6.4486   -0.0925   -0.3112 O   0  0  0  0  0  0  0  0  0  0  0  0
   -2.3018    0.2264   -0.3360 N   0  0  0  0  0  0  0  0  0  0  0  0
   -5.4691   -1.3038    0.7445 N   0  0  0  0  0  0  0  0  0  0  0  0
    2.3781   -1.1918   -0.1415 N   0  0  0  0  0  0  0  0  0  0  0  0
   -4.5880    0.3686   -0.9370 C   0  0  2  0  0  0  0  0  0  0  0  0
   -4.3552   -0.9016   -0.1101 C   0  0  1  0  0  0  0  0  0  0  0  0
   -3.1685    0.7134   -1.4124 C   0  0  0  0  0  0  0  0  0  0  0  0
   -3.0288   -0.6205    0.6124 C   0  0  0  0  0  0  0  0  0  0  0  0
   -5.2013    1.5031   -0.1061 C   0  0  0  0  0  0  0  0  0  0  0  0
    2.0949   -2.6411   -0.2625 C   0  0  0  0  0  0  0  0  0  0  0  0
   -6.4000    0.9965    0.6865 C   0  0  0  0  0  0  0  0  0  0  0  0
    2.6185   -3.6064    0.7464 C   0  0  0  0  0  0  0  0  0  0  0  0
    1.1484   -3.3140    0.6734 C   0  0  0  0  0  0  0  0  0  0  0  0
   -6.0123   -0.2047    1.5447 C   0  0  0  0  0  0  0  0  0  0  0  0
   -0.9604    0.5275   -0.2295 C   0  0  0  0  0  0  0  0  0  0  0  0
    1.3688   -0.1870   -0.1335 C   0  0  0  0  0  0  0  0  0  0  0  0
    0.0010   -0.4869   -0.2413 C   0  0  0  0  0  0  0  0  0  0  0  0
    1.7394    1.1699   -0.0134 C   0  0  0  0  0  0  0  0  0  0  0  0
   -0.5743    1.8594   -0.1100 C   0  0  0  0  0  0  0  0  0  0  0  0
    3.7056   -0.8260   -0.0317 C   0  0  0  0  0  0  0  0  0  0  0  0
    0.7751    2.1854   -0.0017 C   0  0  0  0  0  0  0  0  0  0  0  0
    4.1633    0.4265    0.0865 C   0  0  0  0  0  0  0  0  0  0  0  0
    3.1757    1.5356    0.1029 C   0  0  0  0  0  0  0  0  0  0  0  0
    5.6086    0.6325    0.1919 C   0  0  0  0  0  0  0  0  0  0  0  0
   -0.6002   -2.2802   -1.6832 C   0  0  0  0  0  0  0  0  0  0  0  0
   -5.2454    0.1655   -1.7912 H   0  0  0  0  0  0  0  0  0  0  0  0
   -4.1776   -1.7279   -0.8128 H   0  0  0  0  0  0  0  0  0  0  0  0
   -2.9344    0.1713   -2.3358 H   0  0  0  0  0  0  0  0  0  0  0  0
   -3.0558    1.7851   -1.6040 H   0  0  0  0  0  0  0  0  0  0  0  0
   -3.1675   -0.0655    1.5464 H   0  0  0  0  0  0  0  0  0  0  0  0
   -2.5225   -1.5595    0.8533 H   0  0  0  0  0  0  0  0  0  0  0  0
   -5.5077    2.3230   -0.7660 H   0  0  0  0  0  0  0  0  0  0  0  0
   -4.4628    1.9225    0.5889 H   0  0  0  0  0  0  0  0  0  0  0  0
    2.1223   -2.9754   -1.2946 H   0  0  0  0  0  0  0  0  0  0  0  0
   -6.7859    1.7986    1.3256 H   0  0  0  0  0  0  0  0  0  0  0  0
   -7.2076    0.7177   -0.0019 H   0  0  0  0  0  0  0  0  0  0  0  0
   -5.1743   -2.0595    1.3620 H   0  0  0  0  0  0  0  0  0  0  0  0
    3.1551   -3.2347    1.6108 H   0  0  0  0  0  0  0  0  0  0  0  0
    2.9589   -4.5722    0.3931 H   0  0  0  0  0  0  0  0  0  0  0  0
    0.5255   -4.1241    0.3123 H   0  0  0  0  0  0  0  0  0  0  0  0
    0.7475   -2.7932    1.5362 H   0  0  0  0  0  0  0  0  0  0  0  0
   -5.2980    0.0974    2.3189 H   0  0  0  0  0  0  0  0  0  0  0  0
   -6.9036   -0.5675    2.0686 H   0  0  0  0  0  0  0  0  0  0  0  0
    4.3899   -1.6690   -0.0569 H   0  0  0  0  0  0  0  0  0  0  0  0
    1.0558    3.2308    0.0905 H   0  0  0  0  0  0  0  0  0  0  0  0
    0.2210   -1.9660   -2.3358 H   0  0  0  0  0  0  0  0  0  0  0  0
   -1.5472   -1.9408   -2.1130 H   0  0  0  0  0  0  0  0  0  0  0  0
   -0.6250   -3.3724   -1.6415 H   0  0  0  0  0  0  0  0  0  0  0  0
    6.8185    1.9102    1.0186 H   0  0  0  0  0  0  0  0  0  0  0  0
  1 23  1  0  0  0  0
  2 21  1  0  0  0  0
  2 29  1  0  0  0  0
  3 27  2  0  0  0  0
  4 28  1  0  0  0  0
  4 53  1  0  0  0  0
  5 28  2  0  0  0  0
  6 11  1  0  0  0  0
  6 12  1  0  0  0  0
  6 19  1  0  0  0  0
  7 10  1  0  0  0  0
  7 18  1  0  0  0  0
  7 41  1  0  0  0  0
  8 14  1  0  0  0  0
  8 20  1  0  0  0  0
  8 24  1  0  0  0  0
  9 10  1  0  0  0  0
  9 11  1  0  0  0  0
  9 13  1  0  0  0  0
  9 30  1  6  0  0  0
 10 12  1  0  0  0  0
 10 31  1  6  0  0  0
 11 32  1  0  0  0  0
 11 33  1  0  0  0  0
 12 34  1  0  0  0  0
 12 35  1  0  0  0  0
 13 15  1  0  0  0  0
 13 36  1  0  0  0  0
 13 37  1  0  0  0  0
 14 16  1  0  0  0  0
 14 17  1  0  0  0  0
 14 38  1  0  0  0  0
 15 18  1  0  0  0  0
 15 39  1  0  0  0  0
 15 40  1  0  0  0  0
 16 17  1  0  0  0  0
 16 42  1  0  0  0  0
 16 43  1  0  0  0  0
 17 44  1  0  0  0  0
 17 45  1  0  0  0  0
 18 46  1  0  0  0  0
 18 47  1  0  0  0  0
 19 21  1  0  0  0  0
 19 23  2  0  0  0  0
 20 21  2  0  0  0  0
 20 22  1  0  0  0  0
 22 25  2  0  0  0  0
 22 27  1  0  0  0  0
 23 25  1  0  0  0  0
 24 26  2  0  0  0  0
 24 48  1  0  0  0  0
 25 49  1  0  0  0  0
 26 27  1  0  0  0  0
 26 28  1  0  0  0  0
 29 50  1  0  0  0  0
 29 51  1  0  0  0  0
 29 52  1  0  0  0  0
M  END
>  <PUBCHEM_COMPOUND_CID>
152946

>  <PUBCHEM_CONFORMER_RMSD>
0.8

>  <PUBCHEM_CONFORMER_DIVERSEORDER>
1
3
4
2
5
6

>  <PUBCHEM_MMFF94_PARTIAL_CHARGES>
35
1 -0.19
10 0.27
11 0.37
12 0.37
14 0.07
16 -0.2
17 -0.2
18 0.27
19 0.1
2 -0.36
20 0.1
21 0.08
22 0.09
23 0.19
24 -0.05
25 -0.15
26 0.03
27 0.47
28 0.71
29 0.28
3 -0.57
38 0.1
4 -0.65
41 0.36
42 0.1
43 0.1
44 0.1
45 0.1
48 0.15
49 0.15
5 -0.57
53 0.5
6 -0.84
7 -0.9
8 -0.37

>  <PUBCHEM_EFFECTIVE_ROTOR_COUNT>
6

>  <PUBCHEM_PHARMACOPHORE_FEATURES>
13
1 2 acceptor
1 3 acceptor
1 4 acceptor
1 5 acceptor
1 6 cation
1 7 cation
1 7 donor
1 8 cation
3 4 5 28 anion
5 6 9 10 11 12 rings
6 19 20 21 22 23 25 rings
6 7 9 10 13 15 18 rings
6 8 20 22 24 26 27 rings

>  <PUBCHEM_HEAVY_ATOM_COUNT>
29

>  <PUBCHEM_ATOM_DEF_STEREO_COUNT>
2

>  <PUBCHEM_ATOM_UDEF_STEREO_COUNT>
0

>  <PUBCHEM_BOND_DEF_STEREO_COUNT>
0

>  <PUBCHEM_BOND_UDEF_STEREO_COUNT>
0

>  <PUBCHEM_ISOTOPIC_ATOM_COUNT>
0

>  <PUBCHEM_COMPONENT_COUNT>
1

>  <PUBCHEM_CACTVS_TAUTO_COUNT>
1

>  <PUBCHEM_CONFORMER_ID>
0002557200000001

>  <PUBCHEM_MMFF94_ENERGY>
113.0018

>  <PUBCHEM_FEATURE_SELFOVERLAP>
66.248

>  <PUBCHEM_SHAPE_FINGERPRINT>
10090160 65 18261105296635432646
10411042 1 17834674890634556214
10835480 77 18261667061711052637
10906281 52 18188508929041476608
1100329 8 18268145538560707940
11135926 11 18337380574470553622
11421498 54 17346326959696427506
11445158 3 17532087379008189518
11578080 2 16807556280423780295
11963148 33 18187078498653010731
12236239 1 17489587874423878437
12596602 18 17489308628804168155
12730499 353 18334862701432634082
12788726 201 17417534601423783409
12838862 33 18267845290456325108
13140716 1 18195806495136590144
13402501 40 18333452062120708867
13782708 43 16370996348599614586
14341114 176 18338806615661276387
146900 427 18342737412005236602
14790565 3 18265898140877777516
14840074 17 18131066018000835159
15081414 286 18341616988334709396
15927050 60 18410854399594188406
1601671 61 18413106164751605793
16994733 274 15840974690050625008
19591789 44 18193835074903697982
20028762 73 18199746011061077558
20511986 3 17917418818481002425
21033650 10 15431729671042123796
21197605 99 18194128631998595467
21267235 1 18411705357796181804
21421861 104 18189327992078969410
21521721 280 18341051917163550176
21623969 137 18334301971998248123
21781051 124 18041860483967264258
23557571 272 17168142300470286477
23559900 14 18047740516763524219
23569914 152 16834590917645755333
239999 70 18271815592331252822
3178227 256 18409453600520953552
335352 9 18413106186849071420
3411729 13 18412267215999988231
34934 24 18413383237429458550
350125 39 18410293623131063076
3680242 22 18335977602081238802
38695281 34 18202282515366017839
4073 2 18259992578457838867
4093350 32 17489315135416189119
4340502 62 17458346320962348634
5104073 3 18263084306302371105
5265222 85 18190750924004209052
59755656 215 18335986389373147606
6086070 43 17059474280863987145
6669772 16 18202286897029368590
9995097 60 18408040693777603373

>  <PUBCHEM_SHAPE_MULTIPOLES>
551.11
13.71
3.29
1.02
5.93
1.85
-0.11
-3.86
3.55
-2.91
0.34
0.97
0.31
0.39

>  <PUBCHEM_SHAPE_SELFOVERLAP>
1210.25

>  <PUBCHEM_SHAPE_VOLUME>
298.6

>  <PUBCHEM_COORDINATE_TYPE>
2
5
10

$$$$
149096
 OpenBabel12012414433D

 46 49  0  0  1  0  0  0  0  0999 V2000
   -1.6954   -2.8989   -0.2014 F   0  0  0  0  0  0  0  0  0  0  0  0
   -1.0001    1.7595    0.2511 O   0  0  0  0  0  0  0  0  0  0  0  0
    3.3312   -2.4088   -0.0781 O   0  0  0  0  0  0  0  0  0  0  0  0
    5.6199   -1.2542   -0.6385 O   0  0  0  0  0  0  0  0  0  0  0  0
    5.9734    0.6276    0.6121 O   0  0  0  0  0  0  0  0  0  0  0  0
   -2.7213   -0.3486    0.0160 N   0  0  0  0  0  0  0  0  0  0  0  0
    1.8461    1.3746    0.1655 N   0  0  0  0  0  0  0  0  0  0  0  0
   -5.5669   -0.1342   -0.1096 N   0  0  0  0  0  0  0  0  0  0  0  0
   -3.5512   -0.9730    1.0509 C   0  0  0  0  0  0  0  0  0  0  0  0
   -3.3853   -0.1080   -1.2713 C   0  0  0  0  0  0  0  0  0  0  0  0
    1.2583    2.7168    0.1438 C   0  0  2  0  0  0  0  0  0  0  0  0
   -1.3384   -0.5623    0.0128 C   0  0  0  0  0  0  0  0  0  0  0  0
    0.9384    0.2982    0.1030 C   0  0  0  0  0  0  0  0  0  0  0  0
   -0.4488    0.5071    0.1313 C   0  0  0  0  0  0  0  0  0  0  0  0
   -4.8858   -0.2358    1.1867 C   0  0  0  0  0  0  0  0  0  0  0  0
   -4.7244    0.6021   -1.0601 C   0  0  0  0  0  0  0  0  0  0  0  0
   -0.0942    2.6867    0.8573 C   0  0  0  0  0  0  0  0  0  0  0  0
    1.4128   -1.0234    0.0026 C   0  0  0  0  0  0  0  0  0  0  0  0
   -0.8501   -1.8632   -0.0975 C   0  0  0  0  0  0  0  0  0  0  0  0
    3.2037    1.1260    0.1461 C   0  0  0  0  0  0  0  0  0  0  0  0
    0.5242   -2.0994   -0.0962 C   0  0  0  0  0  0  0  0  0  0  0  0
    1.1371    3.2138   -1.2992 C   0  0  0  0  0  0  0  0  0  0  0  0
    2.8787   -1.2731   -0.0067 C   0  0  0  0  0  0  0  0  0  0  0  0
   -6.8641    0.5237    0.0424 C   0  0  0  0  0  0  0  0  0  0  0  0
    3.7708   -0.0847    0.0727 C   0  0  0  0  0  0  0  0  0  0  0  0
    5.2315   -0.1688    0.0640 C   0  0  0  0  0  0  0  0  0  0  0  0
   -3.7356   -2.0249    0.8001 H   0  0  0  0  0  0  0  0  0  0  0  0
   -3.0354   -0.9472    2.0187 H   0  0  0  0  0  0  0  0  0  0  0  0
   -2.7566    0.5161   -1.9184 H   0  0  0  0  0  0  0  0  0  0  0  0
   -3.5398   -1.0645   -1.7866 H   0  0  0  0  0  0  0  0  0  0  0  0
    1.9097    3.4113    0.6902 H   0  0  0  0  0  0  0  0  0  0  0  0
   -5.5117   -0.7883    1.8979 H   0  0  0  0  0  0  0  0  0  0  0  0
   -4.7114    0.7619    1.6120 H   0  0  0  0  0  0  0  0  0  0  0  0
   -4.5444    1.6263   -0.7062 H   0  0  0  0  0  0  0  0  0  0  0  0
   -5.2296    0.6763   -2.0308 H   0  0  0  0  0  0  0  0  0  0  0  0
    0.0215    2.4267    1.9182 H   0  0  0  0  0  0  0  0  0  0  0  0
   -0.5644    3.6756    0.8199 H   0  0  0  0  0  0  0  0  0  0  0  0
    3.7950    2.0351    0.1900 H   0  0  0  0  0  0  0  0  0  0  0  0
    0.8817   -3.1218   -0.1788 H   0  0  0  0  0  0  0  0  0  0  0  0
    0.6965    4.2158   -1.3263 H   0  0  0  0  0  0  0  0  0  0  0  0
    2.1226    3.2678   -1.7745 H   0  0  0  0  0  0  0  0  0  0  0  0
    0.5148    2.5534   -1.9125 H   0  0  0  0  0  0  0  0  0  0  0  0
   -6.7696    1.5447    0.4298 H   0  0  0  0  0  0  0  0  0  0  0  0
   -7.5060   -0.0455    0.7239 H   0  0  0  0  0  0  0  0  0  0  0  0
   -7.3880    0.5669   -0.9189 H   0  0  0  0  0  0  0  0  0  0  0  0
    6.5963   -1.3448   -0.6668 H   0  0  0  0  0  0  0  0  0  0  0  0
  1 19  1  0  0  0  0
  2 14  1  0  0  0  0
  2 17  1  0  0  0  0
  3 23  2  0  0  0  0
  4 26  1  0  0  0  0
  4 46  1  0  0  0  0
  5 26  2  0  0  0  0
  6  9  1  0  0  0  0
  6 10  1  0  0  0  0
  6 12  1  0  0  0  0
  7 11  1  0  0  0  0
  7 13  1  0  0  0  0
  7 20  1  0  0  0  0
  8 15  1  0  0  0  0
  8 16  1  0  0  0  0
  8 24  1  0  0  0  0
  9 15  1  0  0  0  0
  9 27  1  0  0  0  0
  9 28  1  0  0  0  0
 10 16  1  0  0  0  0
 10 29  1  0  0  0  0
 10 30  1  0  0  0  0
 11 17  1  0  0  0  0
 11 22  1  0  0  0  0
 11 31  1  1  0  0  0
 12 14  1  0  0  0  0
 12 19  2  0  0  0  0
 13 14  2  0  0  0  0
 13 18  1  0  0  0  0
 15 32  1  0  0  0  0
 15 33  1  0  0  0  0
 16 34  1  0  0  0  0
 16 35  1  0  0  0  0
 17 36  1  0  0  0  0
 17 37  1  0  0  0  0
 18 21  2  0  0  0  0
 18 23  1  0  0  0  0
 19 21  1  0  0  0  0
 20 25  2  0  0  0  0
 20 38  1  0  0  0  0
 21 39  1  0  0  0  0
 22 40  1  0  0  0  0
 22 41  1  0  0  0  0
 22 42  1  0  0  0  0
 23 25  1  0  0  0  0
 24 43  1  0  0  0  0
 24 44  1  0  0  0  0
 24 45  1  0  0  0  0
 25 26  1  0  0  0  0
M  END
>  <PUBCHEM_COMPOUND_CID>
149096

>  <PUBCHEM_CONFORMER_RMSD>
0.8

>  <PUBCHEM_CONFORMER_DIVERSEORDER>
1
5
2
3
4
6

>  <PUBCHEM_MMFF94_PARTIAL_CHARGES>
28
1 -0.19
10 0.37
11 0.37
12 0.1
13 0.1
14 0.08
15 0.27
16 0.27
17 0.28
18 0.09
19 0.19
2 -0.36
20 -0.05
21 -0.15
23 0.47
24 0.27
25 0.03
26 0.71
3 -0.57
38 0.15
39 0.15
4 -0.65
46 0.5
5 -0.57
6 -0.84
7 -0.57
8 -0.81
9 0.37

>  <PUBCHEM_EFFECTIVE_ROTOR_COUNT>
3.8

>  <PUBCHEM_PHARMACOPHORE_FEATURES>
12
1 2 acceptor
1 3 acceptor
1 4 acceptor
1 5 acceptor
1 6 cation
1 7 cation
1 8 cation
3 4 5 26 anion
6 12 13 14 18 19 21 rings
6 2 7 11 13 14 17 rings
6 6 8 9 10 15 16 rings
6 7 13 18 20 23 25 rings

>  <PUBCHEM_HEAVY_ATOM_COUNT>
26

>  <PUBCHEM_ATOM_DEF_STEREO_COUNT>
1

>  <PUBCHEM_ATOM_UDEF_STEREO_COUNT>
0

>  <PUBCHEM_BOND_DEF_STEREO_COUNT>
0

>  <PUBCHEM_BOND_UDEF_STEREO_COUNT>
0

>  <PUBCHEM_ISOTOPIC_ATOM_COUNT>
0

>  <PUBCHEM_COMPONENT_COUNT>
1

>  <PUBCHEM_CACTVS_TAUTO_COUNT>
1

>  <PUBCHEM_CONFORMER_ID>
0002466800000001

>  <PUBCHEM_MMFF94_ENERGY>
89.0332

>  <PUBCHEM_FEATURE_SELFOVERLAP>
61.046

>  <PUBCHEM_SHAPE_FINGERPRINT>
10411042 1 18123188996325169506
10673678 19 17387153033727586884
10688039 33 18041279872364484468
10906281 52 18271542956338935284
10967382 1 18411981364725799026
1100329 8 18339080513877983098
11421498 54 13695854901207637965
11646440 116 18272093811580094561
12011746 2 18411420600520191830
12035758 1 18335413599370186960
12166972 35 18131348648545547937
12236239 1 17489586766712602135
12516196 113 18272367572605611089
12553582 1 18411973659596746050
12788726 201 18269550555232994224
12838862 33 18339905083390752296
13004483 165 18336817590362907722
13140716 1 18196092372459839834
13402501 40 18333446517856025949
13583140 156 17821447984763400043
13862211 1 18412540998890744714
14170010 4 18411417323993122337
14464042 87 18060423482654093121
14790565 3 18340214007055416104
14840074 17 17988923370901840236
14955137 171 18340217369966900939
15081414 286 18341056246099817228
15099037 51 18410572911557411247
15196674 1 18339642372767325210
15849732 13 18060419123098510479
1601671 61 18409165510798494088
16087824 20 18338519621552240501
16945 1 18412262878288539632
17349148 13 17775291590314352931
17357779 13 18339069415598393180
18785283 64 18042976569161607565
19141452 34 18202281441829681494
200 152 18059851753396965809
20642791 178 18044943617439584772
20739085 24 18195550124153930609
21029758 11 18343578538627429176
21033648 29 18188192265698526709
21033650 10 15911955814290393539
21236236 1 18270683052484312505
21267235 1 18412270506224329822
21279426 13 18192991517862707325
21285901 2 18339928100109689286
21641784 216 18115887225688974956
21709351 56 18409722998307967351
21792934 111 18268134388841321946
21792961 116 17968374542430150766
221357 26 18409440363621722749
22182313 1 18263622040265991948
23402539 116 18202278108639485270
23559900 14 18199181962044167816
23569943 247 17557722277741349750
2748010 2 18267299833572046828
3004659 81 18186803574180732052
3178227 256 18335149691569281427
335352 9 18411701006308593462
34934 24 18411974784941734386
350125 39 18410294705178082385
4340502 62 16805322180370918170
5104073 3 18266735973249180842
59755656 215 18339084796398668966
7495541 125 17676776464972490961

>  <PUBCHEM_SHAPE_MULTIPOLES>
489.37
12.21
2.85
0.94
6.31
1.11
0.07
-1.31
-0.24
-1.62
0.29
0.68
0.26
0.37

>  <PUBCHEM_SHAPE_SELFOVERLAP>
1072.629

>  <PUBCHEM_SHAPE_VOLUME>
265.7

>  <PUBCHEM_COORDINATE_TYPE>
2
5
10

$$$$
5379
 OpenBabel12012414433D

 49 52  0  0  1  0  0  0  0  0999 V2000
    1.8058   -3.0140    0.0840 F   0  0  0  0  0  0  0  0  0  0  0  0
    1.0471    1.6316   -0.3233 O   0  0  0  0  0  0  0  0  0  0  0  0
   -3.2082   -2.5927    0.2126 O   0  0  0  0  0  0  0  0  0  0  0  0
   -5.4991   -1.4815    0.8278 O   0  0  0  0  0  0  0  0  0  0  0  0
   -5.9449    0.3473   -0.4711 O   0  0  0  0  0  0  0  0  0  0  0  0
   -1.8264    1.2219   -0.1874 N   0  0  0  0  0  0  0  0  0  0  0  0
    2.7898   -0.4561   -0.1882 N   0  0  0  0  0  0  0  0  0  0  0  0
    5.6306   -0.2029   -0.2056 N   0  0  0  0  0  0  0  0  0  0  0  0
   -1.4579    2.6496   -0.3329 C   0  0  0  0  0  0  0  0  0  0  0  0
   -1.9590    3.6680    0.6344 C   0  0  0  0  0  0  0  0  0  0  0  0
   -0.5063    3.2922    0.6189 C   0  0  0  0  0  0  0  0  0  0  0  0
   -0.8765    0.1630   -0.1210 C   0  0  0  0  0  0  0  0  0  0  0  0
   -3.1754    0.9336   -0.1147 C   0  0  0  0  0  0  0  0  0  0  0  0
    0.5088    0.3833   -0.1888 C   0  0  0  0  0  0  0  0  0  0  0  0
   -1.3270   -1.1678    0.0183 C   0  0  0  0  0  0  0  0  0  0  0  0
    1.4105   -0.6825   -0.1199 C   0  0  0  0  0  0  0  0  0  0  0  0
    3.5136   -0.2155    1.0685 C   0  0  0  0  0  0  0  0  0  0  0  0
    4.8349    0.5181    0.7943 C   0  0  1  0  0  0  0  0  0  0  0  0
    3.5738   -1.0669   -1.2663 C   0  0  0  0  0  0  0  0  0  0  0  0
    4.8899   -0.3159   -1.4605 C   0  0  0  0  0  0  0  0  0  0  0  0
   -3.7069   -0.2880    0.0172 C   0  0  0  0  0  0  0  0  0  0  0  0
   -2.7848   -1.4496    0.0937 C   0  0  0  0  0  0  0  0  0  0  0  0
   -0.4226   -2.2347    0.0871 C   0  0  0  0  0  0  0  0  0  0  0  0
    0.9458   -1.9874    0.0177 C   0  0  0  0  0  0  0  0  0  0  0  0
    5.6509    0.6544    2.0785 C   0  0  0  0  0  0  0  0  0  0  0  0
   -5.1642   -0.4104    0.0775 C   0  0  0  0  0  0  0  0  0  0  0  0
    1.2578    2.1029   -1.6510 C   0  0  0  0  0  0  0  0  0  0  0  0
   -1.4330    2.9588   -1.3728 H   0  0  0  0  0  0  0  0  0  0  0  0
   -2.5442    3.3490    1.4882 H   0  0  0  0  0  0  0  0  0  0  0  0
   -2.2323    4.6420    0.2469 H   0  0  0  0  0  0  0  0  0  0  0  0
    0.1731    4.0567    0.2603 H   0  0  0  0  0  0  0  0  0  0  0  0
   -0.1644    2.7722    1.5071 H   0  0  0  0  0  0  0  0  0  0  0  0
   -3.8097    1.8124   -0.1833 H   0  0  0  0  0  0  0  0  0  0  0  0
    3.6960   -1.1757    1.5690 H   0  0  0  0  0  0  0  0  0  0  0  0
    2.9036    0.3950    1.7469 H   0  0  0  0  0  0  0  0  0  0  0  0
    4.6209    1.5274    0.4189 H   0  0  0  0  0  0  0  0  0  0  0  0
    3.0113   -1.0405   -2.2077 H   0  0  0  0  0  0  0  0  0  0  0  0
    3.7796   -2.1185   -1.0314 H   0  0  0  0  0  0  0  0  0  0  0  0
    5.5073   -0.8432   -2.1959 H   0  0  0  0  0  0  0  0  0  0  0  0
    4.7012    0.6847   -1.8686 H   0  0  0  0  0  0  0  0  0  0  0  0
    5.8446   -1.1376    0.1430 H   0  0  0  0  0  0  0  0  0  0  0  0
   -0.7650   -3.2602    0.1943 H   0  0  0  0  0  0  0  0  0  0  0  0
    5.0890    1.2139    2.8341 H   0  0  0  0  0  0  0  0  0  0  0  0
    5.9031   -0.3239    2.5033 H   0  0  0  0  0  0  0  0  0  0  0  0
    6.5862    1.1938    1.8927 H   0  0  0  0  0  0  0  0  0  0  0  0
    0.4355    1.8306   -2.3206 H   0  0  0  0  0  0  0  0  0  0  0  0
    2.1902    1.6873   -2.0450 H   0  0  0  0  0  0  0  0  0  0  0  0
    1.3580    3.1914   -1.6323 H   0  0  0  0  0  0  0  0  0  0  0  0
   -6.4711   -1.5972    0.8921 H   0  0  0  0  0  0  0  0  0  0  0  0
  1 24  1  0  0  0  0
  2 14  1  0  0  0  0
  2 27  1  0  0  0  0
  3 22  2  0  0  0  0
  4 26  1  0  0  0  0
  4 49  1  0  0  0  0
  5 26  2  0  0  0  0
  6  9  1  0  0  0  0
  6 12  1  0  0  0  0
  6 13  1  0  0  0  0
  7 16  1  0  0  0  0
  7 17  1  0  0  0  0
  7 19  1  0  0  0  0
  8 18  1  0  0  0  0
  8 20  1  0  0  0  0
  8 41  1  0  0  0  0
  9 10  1  0  0  0  0
  9 11  1  0  0  0  0
  9 28  1  0  0  0  0
 10 11  1  0  0  0  0
 10 29  1  0  0  0  0
 10 30  1  0  0  0  0
 11 31  1  0  0  0  0
 11 32  1  0  0  0  0
 12 14  2  0  0  0  0
 12 15  1  0  0  0  0
 13 21  2  0  0  0  0
 13 33  1  0  0  0  0
 14 16  1  0  0  0  0
 15 22  1  0  0  0  0
 15 23  2  0  0  0  0
 16 24  2  0  0  0  0
 17 18  1  0  0  0  0
 17 34  1  0  0  0  0
 17 35  1  0  0  0  0
 18 25  1  0  0  0  0
 18 36  1  6  0  0  0
 19 20  1  0  0  0  0
 19 37  1  0  0  0  0
 19 38  1  0  0  0  0
 20 39  1  0  0  0  0
 20 40  1  0  0  0  0
 21 22  1  0  0  0  0
 21 26  1  0  0  0  0
 23 24  1  0  0  0  0
 23 42  1  0  0  0  0
 25 43  1  0  0  0  0
 25 44  1  0  0  0  0
 25 45  1  0  0  0  0
 27 46  1  0  0  0  0
 27 47  1  0  0  0  0
 27 48  1  0  0  0  0
M  END
>  <PUBCHEM_COMPOUND_CID>
5379

>  <PUBCHEM_CONFORMER_RMSD>
0.8

>  <PUBCHEM_CONFORMER_DIVERSEORDER>
1
6
5
4
2
3

>  <PUBCHEM_MMFF94_PARTIAL_CHARGES>
35
1 -0.19
10 -0.2
11 -0.2
12 0.1
13 -0.05
14 0.08
15 0.09
16 0.1
17 0.37
18 0.27
19 0.37
2 -0.36
20 0.27
21 0.03
22 0.47
23 -0.15
24 0.19
26 0.71
27 0.28
28 0.1
29 0.1
3 -0.57
30 0.1
31 0.1
32 0.1
33 0.15
4 -0.65
41 0.36
42 0.15
49 0.5
5 -0.57
6 -0.37
7 -0.84
8 -0.9
9 0.07

>  <PUBCHEM_EFFECTIVE_ROTOR_COUNT>
5.8

>  <PUBCHEM_PHARMACOPHORE_FEATURES>
12
1 2 acceptor
1 3 acceptor
1 4 acceptor
1 5 acceptor
1 6 cation
1 7 cation
1 8 cation
1 8 donor
3 4 5 26 anion
6 12 14 15 16 23 24 rings
6 6 12 13 15 21 22 rings
6 7 8 17 18 19 20 rings

>  <PUBCHEM_HEAVY_ATOM_COUNT>
27

>  <PUBCHEM_ATOM_DEF_STEREO_COUNT>
0

>  <PUBCHEM_ATOM_UDEF_STEREO_COUNT>
1

>  <PUBCHEM_BOND_DEF_STEREO_COUNT>
0

>  <PUBCHEM_BOND_UDEF_STEREO_COUNT>
0

>  <PUBCHEM_ISOTOPIC_ATOM_COUNT>
0

>  <PUBCHEM_COMPONENT_COUNT>
1

>  <PUBCHEM_CACTVS_TAUTO_COUNT>
1

>  <PUBCHEM_CONFORMER_ID>
0000150300000001

>  <PUBCHEM_MMFF94_ENERGY>
105.1442

>  <PUBCHEM_FEATURE_SELFOVERLAP>
60.986

>  <PUBCHEM_SHAPE_FINGERPRINT>
10006869 2 18267572516814259355
10319926 262 18197196089641541810
10498660 4 18338515231683609788
10670039 82 18263658290253577188
10906281 52 18261692405901050649
10967382 1 18410014351477382263
1100329 8 18336829822202874243
11595378 159 18188755185681713608
11646440 116 18340779216646393003
12236239 1 17385723599680984238
12516196 113 18342455963425875391
12553582 1 18411132550418328871
12596602 18 17313384565205224728
12788726 201 18334858277515924009
12838862 33 18337934745863983125
13140716 1 18264488575386615667
13402501 40 18272643580553333920
13782708 43 17846222099124584326
13862211 1 18408882958049145519
140371 6 18337123310134332231
14081887 123 18340480076226671912
14178342 30 18263923237827159352
14787075 74 18187368757047980179
14790565 3 18337964475084676901
14955137 171 18339089305739575395
15131766 46 15481804935839564720
15196674 1 18337392613221471607
1601671 61 18334296465565656174
16945 1 18336835199438462967
17349148 13 17967820439940183860
20510252 161 18270961241372886552
21033648 29 17703778206912968688
21267235 1 18336840770480907959
21792934 111 18265043648812939539
22122407 14 15719694090245208812
22182313 1 18338797801766309054
2297311 6 18341343231477364380
2334 1 18120944068463633735
23402539 116 18342450478336329511
23557571 272 18272098158039635516
23559900 14 18341622576572724788
23569914 152 16832616186641229309
23569914 2 15980559696203198400
23845131 108 17621050759294017377
24771293 8 18129935809814987857
283562 15 18339083679400911449
3004659 81 18186808018881338948
335352 9 18409450306766009399
34934 24 18411130329973283055
350125 39 18335424581723336741
3680242 22 18260831475137352426
392239 28 18342452668632468304
469060 322 18336560334337852377
5104073 3 18190469453158390011
5486654 2 18410013242837795271
59755656 215 18410855434495807199
6004065 56 18128525149950924263
7495541 125 17023190482349840227

>  <PUBCHEM_SHAPE_MULTIPOLES>
509.95
11.31
3.31
1.17
2.38
1.97
0.03
-2.19
1.98
-2.23
0.3
1.82
0.33
0.69

>  <PUBCHEM_SHAPE_SELFOVERLAP>
1106.081

>  <PUBCHEM_SHAPE_VOLUME>
278.8

>  <PUBCHEM_COORDINATE_TYPE>
2
5
10

$$$$
3229
 OpenBabel12012414433D

 40 42  0  0  0  0  0  0  0  0999 V2000
   -2.1154    2.6499   -0.4619 F   0  0  0  0  0  0  0  0  0  0  0  0
    2.9252    2.2611   -0.3533 O   0  0  0  0  0  0  0  0  0  0  0  0
    5.2271    1.3101    0.4885 O   0  0  0  0  0  0  0  0  0  0  0  0
    5.6093   -0.8127   -0.2713 O   0  0  0  0  0  0  0  0  0  0  0  0
   -3.0150    0.1116    0.0010 N   0  0  0  0  0  0  0  0  0  0  0  0
   -5.7757   -0.5684    0.2563 N   0  0  0  0  0  0  0  0  0  0  0  0
    1.4852   -1.4794    0.3311 N   0  0  0  0  0  0  0  0  0  0  0  0
   -0.7903   -0.6745    0.1646 N   0  0  0  0  0  0  0  0  0  0  0  0
   -3.4879   -1.2155   -0.4156 C   0  0  0  0  0  0  0  0  0  0  0  0
   -3.8552    0.8073    0.9820 C   0  0  0  0  0  0  0  0  0  0  0  0
   -4.9642   -1.1588   -0.8070 C   0  0  0  0  0  0  0  0  0  0  0  0
   -5.3188    0.7905    0.5417 C   0  0  0  0  0  0  0  0  0  0  0  0
   -1.6383    0.3609   -0.0341 C   0  0  0  0  0  0  0  0  0  0  0  0
    0.5479   -0.4328    0.1300 C   0  0  0  0  0  0  0  0  0  0  0  0
    1.0289    0.8663   -0.1075 C   0  0  0  0  0  0  0  0  0  0  0  0
   -1.2340    1.6599   -0.2722 C   0  0  0  0  0  0  0  0  0  0  0  0
    0.1283    1.9148   -0.3090 C   0  0  0  0  0  0  0  0  0  0  0  0
    0.9319   -2.8059    0.5722 C   0  0  0  0  0  0  0  0  0  0  0  0
    2.4891    1.1357   -0.1465 C   0  0  0  0  0  0  0  0  0  0  0  0
    2.8389   -1.2162    0.2920 C   0  0  0  0  0  0  0  0  0  0  0  0
    3.3955   -0.0191    0.0741 C   0  0  0  0  0  0  0  0  0  0  0  0
    0.7323   -3.5675   -0.7219 C   0  0  0  0  0  0  0  0  0  0  0  0
    4.8551    0.0828    0.0667 C   0  0  0  0  0  0  0  0  0  0  0  0
   -3.3403   -1.9319    0.4027 H   0  0  0  0  0  0  0  0  0  0  0  0
   -2.9165   -1.5742   -1.2810 H   0  0  0  0  0  0  0  0  0  0  0  0
   -3.5522    1.8492    1.1279 H   0  0  0  0  0  0  0  0  0  0  0  0
   -3.7517    0.3090    1.9548 H   0  0  0  0  0  0  0  0  0  0  0  0
   -5.0881   -0.5842   -1.7336 H   0  0  0  0  0  0  0  0  0  0  0  0
   -5.3221   -2.1742   -1.0094 H   0  0  0  0  0  0  0  0  0  0  0  0
   -5.9389    1.2155    1.3384 H   0  0  0  0  0  0  0  0  0  0  0  0
   -5.4543    1.4244   -0.3437 H   0  0  0  0  0  0  0  0  0  0  0  0
   -6.7506   -0.5400   -0.0412 H   0  0  0  0  0  0  0  0  0  0  0  0
    0.4711    2.9286   -0.4943 H   0  0  0  0  0  0  0  0  0  0  0  0
    1.6224   -3.3785    1.2056 H   0  0  0  0  0  0  0  0  0  0  0  0
   -0.0046   -2.7698    1.1426 H   0  0  0  0  0  0  0  0  0  0  0  0
    3.4422   -2.1026    0.4620 H   0  0  0  0  0  0  0  0  0  0  0  0
    0.0195   -3.0580   -1.3786 H   0  0  0  0  0  0  0  0  0  0  0  0
    1.6748   -3.6714   -1.2698 H   0  0  0  0  0  0  0  0  0  0  0  0
    0.3464   -4.5712   -0.5175 H   0  0  0  0  0  0  0  0  0  0  0  0
    6.2022    1.4170    0.4972 H   0  0  0  0  0  0  0  0  0  0  0  0
  1 16  1  0  0  0  0
  2 19  2  0  0  0  0
  3 23  1  0  0  0  0
  3 40  1  0  0  0  0
  4 23  2  0  0  0  0
  5  9  1  0  0  0  0
  5 10  1  0  0  0  0
  5 13  1  0  0  0  0
  6 11  1  0  0  0  0
  6 12  1  0  0  0  0
  6 32  1  0  0  0  0
  7 14  1  0  0  0  0
  7 18  1  0  0  0  0
  7 20  1  0  0  0  0
  8 13  1  0  0  0  0
  8 14  2  0  0  0  0
  9 11  1  0  0  0  0
  9 24  1  0  0  0  0
  9 25  1  0  0  0  0
 10 12  1  0  0  0  0
 10 26  1  0  0  0  0
 10 27  1  0  0  0  0
 11 28  1  0  0  0  0
 11 29  1  0  0  0  0
 12 30  1  0  0  0  0
 12 31  1  0  0  0  0
 13 16  2  0  0  0  0
 14 15  1  0  0  0  0
 15 17  2  0  0  0  0
 15 19  1  0  0  0  0
 16 17  1  0  0  0  0
 17 33  1  0  0  0  0
 18 22  1  0  0  0  0
 18 34  1  0  0  0  0
 18 35  1  0  0  0  0
 19 21  1  0  0  0  0
 20 21  2  0  0  0  0
 20 36  1  0  0  0  0
 21 23  1  0  0  0  0
 22 37  1  0  0  0  0
 22 38  1  0  0  0  0
 22 39  1  0  0  0  0
M  END
>  <PUBCHEM_COMPOUND_CID>
3229

>  <PUBCHEM_CONFORMER_RMSD>
0.8

>  <PUBCHEM_CONFORMER_DIVERSEORDER>
1
5
2
4
3

>  <PUBCHEM_MMFF94_PARTIAL_CHARGES>
26
1 -0.19
10 0.37
11 0.27
12 0.27
13 0.41
14 0.41
15 0.09
16 0.19
17 -0.15
18 0.37
19 0.47
2 -0.57
20 -0.05
21 0.03
23 0.71
3 -0.65
32 0.36
33 0.15
36 0.15
4 -0.57
40 0.5
5 -0.84
6 -0.9
7 -0.57
8 -0.62
9 0.37

>  <PUBCHEM_EFFECTIVE_ROTOR_COUNT>
4.2

>  <PUBCHEM_PHARMACOPHORE_FEATURES>
11
1 2 acceptor
1 3 acceptor
1 4 acceptor
1 5 cation
1 6 cation
1 6 donor
3 3 4 23 anion
3 7 8 14 cation
6 5 6 9 10 11 12 rings
6 7 14 15 19 20 21 rings
6 8 13 14 15 16 17 rings

>  <PUBCHEM_HEAVY_ATOM_COUNT>
23

>  <PUBCHEM_ATOM_DEF_STEREO_COUNT>
0

>  <PUBCHEM_ATOM_UDEF_STEREO_COUNT>
0

>  <PUBCHEM_BOND_DEF_STEREO_COUNT>
0

>  <PUBCHEM_BOND_UDEF_STEREO_COUNT>
0

>  <PUBCHEM_ISOTOPIC_ATOM_COUNT>
0

>  <PUBCHEM_COMPONENT_COUNT>
1

>  <PUBCHEM_CACTVS_TAUTO_COUNT>
1

>  <PUBCHEM_CONFORMER_ID>
00000C9D00000001

>  <PUBCHEM_MMFF94_ENERGY>
66.6836

>  <PUBCHEM_FEATURE_SELFOVERLAP>
55.914

>  <PUBCHEM_SHAPE_FINGERPRINT>
10090160 65 18186800287861162315
10616163 171 18411982468669849479
10906281 52 18187948156662672753
10967382 1 18408886247693004618
1100329 8 18265330792940875714
11488393 25 17772489914302121910
11578080 2 16807843235937081159
12107183 9 17622172265395613705
12236239 1 18131633395944231881
12553582 1 18337941342764827695
12596602 18 17561365097528983721
12839892 36 18265878199513550994
13140716 1 18263649630813453099
13583140 156 14045736024374263925
13836976 161 18334297591015717542
13862211 1 18334853905545353186
14178342 30 18122613968986470192
14787075 74 18342454872108809824
14790565 3 18411141380407093053
14863182 85 18336276660490821198
15196674 1 18410292510180028240
15927050 60 17619916496552670109
17349148 13 17966969421892679441
1813 80 17603878758436446437
18681886 176 18341325686636141616
19591789 44 18339078297527204086
200 152 18413668019894697985
20028762 73 18272647982504902950
20645477 70 18335136480038966263
21054139 6 18270953648308894999
21197605 99 18193004935573525659
21267235 1 18409738369568631835
21421861 104 18044092354668225979
21673915 165 18412263921849560971
21709351 56 18335135388864130917
23402539 116 18413385449506044269
23559900 14 17834383536646937242
26918003 58 17675928707374655897
2871803 45 18334852814101206127
335352 9 18408887347220476550
33824 294 18408041788487887810
34797466 226 16558477498913353624
34934 24 18337950091755517507
350125 39 18409730668708620580
465052 167 17894634755546391890
474229 33 18409165528184364482
5104073 3 18263922133867597368
5486654 2 18339645637232614100
59755656 215 18335702693624298295
9709674 26 18263088734297965571

>  <PUBCHEM_SHAPE_MULTIPOLES>
428.52
11.23
2.84
0.77
3.44
1.58
0.02
-0.63
0.73
-0.84
-0.43
0.34
0.09
-0.44

>  <PUBCHEM_SHAPE_SELFOVERLAP>
923.278

>  <PUBCHEM_SHAPE_VOLUME>
235.1

>  <PUBCHEM_COORDINATE_TYPE>
2
5
10

$$$$
2764
 OpenBabel12012414433D

 42 45  0  0  0  0  0  0  0  0999 V2000
   -2.2164    2.7826    0.3610 F   0  0  0  0  0  0  0  0  0  0  0  0
    2.8091    2.5240    0.2325 O   0  0  0  0  0  0  0  0  0  0  0  0
    5.1624    1.4595    0.6808 O   0  0  0  0  0  0  0  0  0  0  0  0
    5.5985   -0.2899   -0.7262 O   0  0  0  0  0  0  0  0  0  0  0  0
    1.5285   -1.3112   -0.2906 N   0  0  0  0  0  0  0  0  0  0  0  0
   -3.1274    0.1877    0.0112 N   0  0  0  0  0  0  0  0  0  0  0  0
   -5.8815   -0.5181   -0.2456 N   0  0  0  0  0  0  0  0  0  0  0  0
    1.1463   -2.7265   -0.4863 C   0  0  0  0  0  0  0  0  0  0  0  0
    1.6920   -3.7953    0.4013 C   0  0  0  0  0  0  0  0  0  0  0  0
    0.2424   -3.4159    0.4810 C   0  0  0  0  0  0  0  0  0  0  0  0
    0.5507   -0.2889   -0.1261 C   0  0  0  0  0  0  0  0  0  0  0  0
    2.8698   -0.9817   -0.2685 C   0  0  0  0  0  0  0  0  0  0  0  0
    0.9660    1.0479    0.0569 C   0  0  0  0  0  0  0  0  0  0  0  0
   -0.8289   -0.5519   -0.1380 C   0  0  0  0  0  0  0  0  0  0  0  0
   -1.7586    0.4786    0.0260 C   0  0  0  0  0  0  0  0  0  0  0  0
   -3.9592    0.8291   -1.0161 C   0  0  0  0  0  0  0  0  0  0  0  0
   -3.5988   -1.1171    0.4878 C   0  0  0  0  0  0  0  0  0  0  0  0
    3.3692    0.2493   -0.1019 C   0  0  0  0  0  0  0  0  0  0  0  0
    2.4163    1.3744    0.0768 C   0  0  0  0  0  0  0  0  0  0  0  0
   -5.4277    0.8278   -0.5931 C   0  0  0  0  0  0  0  0  0  0  0  0
   -5.0808   -1.0498    0.8559 C   0  0  0  0  0  0  0  0  0  0  0  0
    0.0335    2.0797    0.2209 C   0  0  0  0  0  0  0  0  0  0  0  0
   -1.3285    1.7904    0.2047 C   0  0  0  0  0  0  0  0  0  0  0  0
    4.8232    0.4153   -0.1046 C   0  0  0  0  0  0  0  0  0  0  0  0
    1.0251   -2.9710   -1.5368 H   0  0  0  0  0  0  0  0  0  0  0  0
    2.3236   -3.5196    1.2368 H   0  0  0  0  0  0  0  0  0  0  0  0
    1.9395   -4.7488   -0.0491 H   0  0  0  0  0  0  0  0  0  0  0  0
   -0.4833   -4.1162    0.0853 H   0  0  0  0  0  0  0  0  0  0  0  0
   -0.0718   -2.9133    1.3877 H   0  0  0  0  0  0  0  0  0  0  0  0
    3.5217   -1.8387   -0.4086 H   0  0  0  0  0  0  0  0  0  0  0  0
   -1.1885   -1.5547   -0.3363 H   0  0  0  0  0  0  0  0  0  0  0  0
   -3.8410    0.2839   -1.9617 H   0  0  0  0  0  0  0  0  0  0  0  0
   -3.6590    1.8648   -1.2071 H   0  0  0  0  0  0  0  0  0  0  0  0
   -3.0401   -1.4308    1.3784 H   0  0  0  0  0  0  0  0  0  0  0  0
   -3.4515   -1.8755   -0.2918 H   0  0  0  0  0  0  0  0  0  0  0  0
   -5.5769    1.5043    0.2579 H   0  0  0  0  0  0  0  0  0  0  0  0
   -6.0399    1.2092   -1.4175 H   0  0  0  0  0  0  0  0  0  0  0  0
   -5.4362   -2.0558    1.1042 H   0  0  0  0  0  0  0  0  0  0  0  0
   -5.2201   -0.4304    1.7510 H   0  0  0  0  0  0  0  0  0  0  0  0
    0.3487    3.1098    0.3616 H   0  0  0  0  0  0  0  0  0  0  0  0
   -6.8602   -0.4802    0.0377 H   0  0  0  0  0  0  0  0  0  0  0  0
    6.1325    1.6030    0.7045 H   0  0  0  0  0  0  0  0  0  0  0  0
  1 23  1  0  0  0  0
  2 19  2  0  0  0  0
  3 24  1  0  0  0  0
  3 42  1  0  0  0  0
  4 24  2  0  0  0  0
  5  8  1  0  0  0  0
  5 11  1  0  0  0  0
  5 12  1  0  0  0  0
  6 15  1  0  0  0  0
  6 16  1  0  0  0  0
  6 17  1  0  0  0  0
  7 20  1  0  0  0  0
  7 21  1  0  0  0  0
  7 41  1  0  0  0  0
  8  9  1  0  0  0  0
  8 10  1  0  0  0  0
  8 25  1  0  0  0  0
  9 10  1  0  0  0  0
  9 26  1  0  0  0  0
  9 27  1  0  0  0  0
 10 28  1  0  0  0  0
 10 29  1  0  0  0  0
 11 13  1  0  0  0  0
 11 14  2  0  0  0  0
 12 18  2  0  0  0  0
 12 30  1  0  0  0  0
 13 19  1  0  0  0  0
 13 22  2  0  0  0  0
 14 15  1  0  0  0  0
 14 31  1  0  0  0  0
 15 23  2  0  0  0  0
 16 20  1  0  0  0  0
 16 32  1  0  0  0  0
 16 33  1  0  0  0  0
 17 21  1  0  0  0  0
 17 34  1  0  0  0  0
 17 35  1  0  0  0  0
 18 19  1  0  0  0  0
 18 24  1  0  0  0  0
 20 36  1  0  0  0  0
 20 37  1  0  0  0  0
 21 38  1  0  0  0  0
 21 39  1  0  0  0  0
 22 23  1  0  0  0  0
 22 40  1  0  0  0  0
M  END
>  <PUBCHEM_COMPOUND_CID>
2764

>  <PUBCHEM_CONFORMER_RMSD>
0.8

>  <PUBCHEM_CONFORMER_DIVERSEORDER>
1
2
3
5
4

>  <PUBCHEM_MMFF94_PARTIAL_CHARGES>
34
1 -0.19
10 -0.2
11 0.1
12 -0.05
13 0.09
14 -0.15
15 0.1
16 0.37
17 0.37
18 0.03
19 0.47
2 -0.57
20 0.27
21 0.27
22 -0.15
23 0.19
24 0.71
25 0.1
26 0.1
27 0.1
28 0.1
29 0.1
3 -0.65
30 0.15
31 0.15
4 -0.57
40 0.15
41 0.36
42 0.5
5 -0.37
6 -0.84
7 -0.9
8 0.07
9 -0.2

>  <PUBCHEM_EFFECTIVE_ROTOR_COUNT>
4.8

>  <PUBCHEM_PHARMACOPHORE_FEATURES>
11
1 2 acceptor
1 3 acceptor
1 4 acceptor
1 5 cation
1 6 cation
1 7 cation
1 7 donor
3 3 4 24 anion
6 11 13 14 15 22 23 rings
6 5 11 12 13 18 19 rings
6 6 7 16 17 20 21 rings

>  <PUBCHEM_HEAVY_ATOM_COUNT>
24

>  <PUBCHEM_ATOM_DEF_STEREO_COUNT>
0

>  <PUBCHEM_ATOM_UDEF_STEREO_COUNT>
0

>  <PUBCHEM_BOND_DEF_STEREO_COUNT>
0

>  <PUBCHEM_BOND_UDEF_STEREO_COUNT>
0

>  <PUBCHEM_ISOTOPIC_ATOM_COUNT>
0

>  <PUBCHEM_COMPONENT_COUNT>
1

>  <PUBCHEM_CACTVS_TAUTO_COUNT>
1

>  <PUBCHEM_CONFORMER_ID>
00000ACC00000001

>  <PUBCHEM_MMFF94_ENERGY>
76.708

>  <PUBCHEM_FEATURE_SELFOVERLAP>
55.91

>  <PUBCHEM_SHAPE_FINGERPRINT>
10090160 65 18408317808966662063
10411042 1 17762617291932467350
10693767 8 18059007272870331878
10906281 52 18189074065164900161
10967382 1 18411420609273864578
1100329 8 18267583696603315042
11421498 54 16916798344196074203
11488393 25 17487354650460508454
11578080 2 17243006852713938391
11719270 70 18409157801401256914
11963148 33 18261949751926806883
12011746 2 18410017637148358934
12236239 1 17346883364325137981
12592029 89 18410009918934139026
12596602 18 16988562455092785899
12788726 201 17560237986837333801
12838862 33 18340186570840830093
12839892 36 18337093580629542906
13140716 1 18196653114546980219
13402501 40 18335425711732083395
138480 1 17906169547302855618
13862211 1 18412822503705269246
14178342 30 18196646298882566992
14223421 5 18265332807164428023
14787075 74 18131068264110663440
14790565 3 18339085989719231313
14844126 61 16171157627634025330
15196674 1 18340488854971052132
16728300 4 17462534279844618578
18681886 176 18334856173214518160
19591789 44 18194965368614955251
200 152 18131911555348998025
20028762 73 18201437050980220086
20567600 347 18186520982022518570
20645477 70 18272086050885569879
21033650 10 15721085951664638365
21197605 99 18052546753215434859
21267235 1 18341341045133425125
21421861 104 18189898604501888763
21521721 280 18270686479530273552
221490 88 18265901246065370327
22393880 68 18195815067964952110
22956985 138 17753598054301010994
23366157 5 17826240592703246458
23402539 116 18341607161259456823
23557571 272 17385438792041722197
23558518 356 18118980096015516153
23559900 14 17978217271431876563
23569914 152 16691604928465351453
266924 87 18265048046775463605
283562 15 18342462491608049264
2871803 45 18412546474683617598
3178227 256 18337964470694173336
335352 9 18411701015600037670
33824 294 18410291389246694770
3383291 50 18410571748550709178
34934 24 18341889680488571039
350125 39 18410577314189605124
43471831 8 18337390440226443746
474229 33 18410013260212940602
5104073 3 18270117899085665616
5486654 2 18410861000815510310
59755656 215 18409169891676049590
6138700 20 18410295766556906254
6669772 16 18130793352382656230
9709674 26 18265617585372162759
9999458 23 18410009970505200228

>  <PUBCHEM_SHAPE_MULTIPOLES>
454.08
10.98
3.4
0.78
5.32
2.72
-0.03
-1.96
-0.73
-1.74
0.57
0.26
0.05
0.72

>  <PUBCHEM_SHAPE_SELFOVERLAP>
988.02

>  <PUBCHEM_SHAPE_VOLUME>
248

>  <PUBCHEM_COORDINATE_TYPE>
2
5
10

$$$$
