656575
  -OEChem-10202405373D

 56 59  0     1  0  0  0  0  0999 V2000
    0.2035    0.7430   -0.1000 S   0  0  0  0  0  0  0  0  0  0  0  0
    6.3351   -0.2457    0.9291 S   0  0  0  0  0  0  0  0  0  0  0  0
    0.7989   -3.8614    0.1720 O   0  0  0  0  0  0  0  0  0  0  0  0
    3.6374   -0.1754    2.2662 O   0  0  0  0  0  0  0  0  0  0  0  0
   -1.5465   -3.4351   -2.3282 O   0  5  0  0  0  0  0  0  0  0  0  0
   -2.8980   -3.6816   -0.4990 O   0  0  0  0  0  0  0  0  0  0  0  0
    6.1111   -1.6958    1.6404 O   0  0  0  0  0  0  0  0  0  0  0  0
    6.4005    0.7752    1.9575 O   0  0  0  0  0  0  0  0  0  0  0  0
    7.3671   -0.3754   -0.0820 O   0  0  0  0  0  0  0  0  0  0  0  0
   -8.2496    1.2341    1.9846 O   0  0  0  0  0  0  0  0  0  0  0  0
   -0.3950   -1.8310    0.1249 N   0  0  0  0  0  0  0  0  0  0  0  0
    2.5737   -1.1335    0.4414 N   0  0  0  0  0  0  0  0  0  0  0  0
   -4.4387    0.1365   -0.9743 N   0  3  0  0  0  0  0  0  0  0  0  0
   -7.5704    3.3038    1.2676 N   0  0  0  0  0  0  0  0  0  0  0  0
    0.0691   -0.7271    0.9423 C   0  0  1  0  0  0  0  0  0  0  0  0
    1.3617   -1.5498    1.1454 C   0  0  1  0  0  0  0  0  0  0  0  0
    0.5913   -2.6994    0.4317 C   0  0  0  0  0  0  0  0  0  0  0  0
   -1.5093   -1.7953   -0.6493 C   0  0  0  0  0  0  0  0  0  0  0  0
   -2.1191   -0.6236   -0.9421 C   0  0  0  0  0  0  0  0  0  0  0  0
   -1.5723    0.7395   -0.5251 C   0  0  0  0  0  0  0  0  0  0  0  0
   -3.3737   -0.4891   -1.7732 C   0  0  0  0  0  0  0  0  0  0  0  0
    3.6271   -0.4701    1.0730 C   0  0  0  0  0  0  0  0  0  0  0  0
    4.7639   -0.1432    0.1238 C   0  0  1  0  0  0  0  0  0  0  0  0
   -2.0396   -3.1067   -1.2179 C   0  0  0  0  0  0  0  0  0  0  0  0
    4.6614    1.2365   -0.4789 C   0  0  0  0  0  0  0  0  0  0  0  0
   -4.5540    1.4714   -0.9839 C   0  0  0  0  0  0  0  0  0  0  0  0
   -5.2595   -0.6493   -0.2640 C   0  0  0  0  0  0  0  0  0  0  0  0
    5.1784    1.4821   -1.7510 C   0  0  0  0  0  0  0  0  0  0  0  0
    4.0491    2.2662    0.2356 C   0  0  0  0  0  0  0  0  0  0  0  0
   -5.5501    2.0889   -0.2411 C   0  0  0  0  0  0  0  0  0  0  0  0
   -6.2740   -0.0870    0.4976 C   0  0  0  0  0  0  0  0  0  0  0  0
   -6.4172    1.2973    0.5063 C   0  0  0  0  0  0  0  0  0  0  0  0
    5.0835    2.7572   -2.3084 C   0  0  0  0  0  0  0  0  0  0  0  0
    3.9540    3.5414   -0.3219 C   0  0  0  0  0  0  0  0  0  0  0  0
    4.4713    3.7867   -1.5939 C   0  0  0  0  0  0  0  0  0  0  0  0
   -7.4710    1.9157    1.2945 C   0  0  0  0  0  0  0  0  0  0  0  0
   -0.5212   -0.5947    1.8568 H   0  0  0  0  0  0  0  0  0  0  0  0
    1.5604   -1.7911    2.1971 H   0  0  0  0  0  0  0  0  0  0  0  0
   -2.1264    1.1195    0.3388 H   0  0  0  0  0  0  0  0  0  0  0  0
   -1.6657    1.4543   -1.3480 H   0  0  0  0  0  0  0  0  0  0  0  0
    2.6566   -1.3130   -0.5566 H   0  0  0  0  0  0  0  0  0  0  0  0
   -3.1914    0.1317   -2.6590 H   0  0  0  0  0  0  0  0  0  0  0  0
   -3.7595   -1.4433   -2.1470 H   0  0  0  0  0  0  0  0  0  0  0  0
    4.7831   -0.8973   -0.6737 H   0  0  0  0  0  0  0  0  0  0  0  0
   -3.8697    2.0383   -1.6029 H   0  0  0  0  0  0  0  0  0  0  0  0
   -5.0970   -1.7191   -0.3099 H   0  0  0  0  0  0  0  0  0  0  0  0
    5.6563    0.6888   -2.3195 H   0  0  0  0  0  0  0  0  0  0  0  0
    3.6470    2.1215    1.2328 H   0  0  0  0  0  0  0  0  0  0  0  0
   -5.5965    3.1687   -0.2936 H   0  0  0  0  0  0  0  0  0  0  0  0
   -6.9310   -0.7360    1.0680 H   0  0  0  0  0  0  0  0  0  0  0  0
    6.1043   -2.4709    1.0308 H   0  0  0  0  0  0  0  0  0  0  0  0
    5.4861    2.9483   -3.2988 H   0  0  0  0  0  0  0  0  0  0  0  0
    3.4801    4.3442    0.2354 H   0  0  0  0  0  0  0  0  0  0  0  0
    4.3979    4.7798   -2.0276 H   0  0  0  0  0  0  0  0  0  0  0  0
   -8.2935    3.7608    1.8147 H   0  0  0  0  0  0  0  0  0  0  0  0
   -6.9775    3.9312    0.7399 H   0  0  0  0  0  0  0  0  0  0  0  0
  1 15  1  0  0  0  0
  1 20  1  0  0  0  0
  2  7  1  0  0  0  0
  2  8  2  0  0  0  0
  2  9  2  0  0  0  0
  2 23  1  0  0  0  0
  3 17  2  0  0  0  0
  4 22  2  0  0  0  0
  5 24  1  0  0  0  0
  6 24  2  0  0  0  0
  7 51  1  0  0  0  0
 10 36  2  0  0  0  0
 11 15  1  0  0  0  0
 11 17  1  0  0  0  0
 11 18  1  0  0  0  0
 12 16  1  0  0  0  0
 12 22  1  0  0  0  0
 12 41  1  0  0  0  0
 13 21  1  0  0  0  0
 13 26  2  0  0  0  0
 13 27  1  0  0  0  0
 14 36  1  0  0  0  0
 14 55  1  0  0  0  0
 14 56  1  0  0  0  0
 15 16  1  0  0  0  0
 15 37  1  0  0  0  0
 16 17  1  0  0  0  0
 16 38  1  0  0  0  0
 18 19  2  0  0  0  0
 18 24  1  0  0  0  0
 19 20  1  0  0  0  0
 19 21  1  0  0  0  0
 20 39  1  0  0  0  0
 20 40  1  0  0  0  0
 21 42  1  0  0  0  0
 21 43  1  0  0  0  0
 22 23  1  0  0  0  0
 23 25  1  0  0  0  0
 23 44  1  0  0  0  0
 25 28  2  0  0  0  0
 25 29  1  0  0  0  0
 26 30  1  0  0  0  0
 26 45  1  0  0  0  0
 27 31  2  0  0  0  0
 27 46  1  0  0  0  0
 28 33  1  0  0  0  0
 28 47  1  0  0  0  0
 29 34  2  0  0  0  0
 29 48  1  0  0  0  0
 30 32  2  0  0  0  0
 30 49  1  0  0  0  0
 31 32  1  0  0  0  0
 31 50  1  0  0  0  0
 32 36  1  0  0  0  0
 33 35  2  0  0  0  0
 33 52  1  0  0  0  0
 34 35  1  0  0  0  0
 34 53  1  0  0  0  0
 35 54  1  0  0  0  0
M  CHG  2   5  -1  13   1
M  END
> <PUBCHEM_COMPOUND_CID>
656575

> <PUBCHEM_CONFORMER_RMSD>
1

> <PUBCHEM_CONFORMER_DIVERSEORDER>
1
29
53
64
57
5
37
24
51
41
14
12
58
62
6
16
45
43
61
47
36
50
7
48
67
21
23
15
42
2
49
44
65
54
52
35
11
38
8
55
66
30
46
25
28
40
3
39
56
18
22
63
13
34
17
68
33
10
60
4
59
31
9
27
26
20
32
19

> <PUBCHEM_MMFF94_PARTIAL_CHARGES>
49
1 -0.45
10 -0.57
11 -0.39
12 -0.65
13 -0.21
14 -0.8
15 0.44
16 0.28
17 0.58
18 -0.14
19 -0.28
2 1.38
20 0.37
21 0.63
22 0.57
23 0.31
24 1.05
25 -0.14
26 0.21
27 0.21
28 -0.15
29 -0.15
3 -0.57
30 -0.15
31 -0.15
32 0.09
33 -0.15
34 -0.15
35 -0.15
36 0.54
4 -0.57
41 0.37
45 0.15
46 0.15
47 0.15
48 0.15
49 0.15
5 -0.9
50 0.15
51 0.5
52 0.15
53 0.15
54 0.15
55 0.37
56 0.37
6 -0.9
7 -0.68
8 -0.65
9 -0.65

> <PUBCHEM_EFFECTIVE_ROTOR_COUNT>
9.6

> <PUBCHEM_PHARMACOPHORE_FEATURES>
16
1 10 acceptor
1 12 donor
1 14 donor
1 3 acceptor
1 4 acceptor
1 5 acceptor
1 6 acceptor
1 7 acceptor
1 8 acceptor
1 9 acceptor
3 5 6 24 anion
4 11 15 16 17 rings
4 2 7 8 9 anion
6 1 11 15 18 19 20 rings
6 13 26 27 30 31 32 rings
6 25 28 29 33 34 35 rings

> <PUBCHEM_HEAVY_ATOM_COUNT>
36

> <PUBCHEM_ATOM_DEF_STEREO_COUNT>
3

> <PUBCHEM_ATOM_UDEF_STEREO_COUNT>
0

> <PUBCHEM_BOND_DEF_STEREO_COUNT>
0

> <PUBCHEM_BOND_UDEF_STEREO_COUNT>
0

> <PUBCHEM_ISOTOPIC_ATOM_COUNT>
0

> <PUBCHEM_COMPONENT_COUNT>
1

> <PUBCHEM_CACTVS_TAUTO_COUNT>
4

> <PUBCHEM_CONFORMER_ID>
000A04BF00000001

> <PUBCHEM_MMFF94_ENERGY>
100.4754

> <PUBCHEM_FEATURE_SELFOVERLAP>
81.576

> <PUBCHEM_SHAPE_FINGERPRINT>
11115154 58 18410860950368166240
11456790 92 17531236215881498752
11475781 23 16917068862768864352
1200032 147 17386576890025560812
12106331 60 11746927698839209803
12422481 6 17167854275114327903
12616971 3 17968644013046849390
12975358 362 18054807096220330049
13627175 23 18334306357392582832
13726171 33 18195257834798130924
13782708 43 13334729146175675805
14790565 3 18410009940424799565
14840074 17 18040715896198644861
14856354 85 18409444821861254895
15183329 4 18343581871358858797
15297060 5 18130499777897100546
15357212 105 17532952695181741356
19302320 297 18260833687272733088
20691028 202 18342457015825115153
21315764 119 17989212547129640870
21458453 9 17386020498133357209
23559900 14 18340474665243300402
249057 3 18409444787590881918
3178227 256 18113616751488698944
3552219 110 18118395379864671871
3610482 184 18265059213315796805
3633792 109 12751241393446993443
397830 11 16370731456591658341
4173938 77 17458628981703740980
4625314 4 18186515493718770091
5104073 3 17823408474103751952
57724786 102 17458906063350517060
5951187 136 18341345478152111804

> <PUBCHEM_SHAPE_MULTIPOLES>
681.68
21.03
4.36
1.87
14.53
0.43
-0.13
-16.82
7.76
-0.24
-1.49
-0.6
-0.16
-5.18

> <PUBCHEM_SHAPE_SELFOVERLAP>
1453.836

> <PUBCHEM_SHAPE_VOLUME>
379.1

> <PUBCHEM_COORDINATE_TYPE>
2
5
10

$$$$
