53234134
  -OEChem-10202402473D

 75 78  0     1  0  0  0  0  0999 V2000
   -0.4985   -2.2254   -1.7229 S   0  0  0  0  0  0  0  0  0  0  0  0
   -6.9076    1.7370   -2.5627 S   0  0  0  0  0  0  0  0  0  0  0  0
   -1.7570   -2.2923    2.7529 O   0  0  0  0  0  0  0  0  0  0  0  0
    1.6406   -1.7027    2.7936 O   0  5  0  0  0  0  0  0  0  0  0  0
    1.6088   -3.9842    2.9577 O   0  0  0  0  0  0  0  0  0  0  0  0
   -4.4087   -0.8439    1.6607 O   0  0  0  0  0  0  0  0  0  0  0  0
   -2.4862    1.5455    1.2176 O   0  0  0  0  0  0  0  0  0  0  0  0
    3.4505    2.1146    0.6961 O   0  0  0  0  0  0  0  0  0  0  0  0
    0.7376    2.8843    1.9968 O   0  0  0  0  0  0  0  0  0  0  0  0
   -0.4524    1.1469    2.8239 O   0  0  0  0  0  0  0  0  0  0  0  0
   -0.5168   -2.8938    0.8437 N   0  0  0  0  0  0  0  0  0  0  0  0
   -2.9420   -1.2837   -0.1184 N   0  0  0  0  0  0  0  0  0  0  0  0
    3.8714   -2.0666   -0.6187 N   0  3  0  0  0  0  0  0  0  0  0  0
    4.8153   -2.1003   -1.7205 N   0  0  0  0  0  0  0  0  0  0  0  0
    4.8471    1.4101   -1.0662 N   0  0  0  0  0  0  0  0  0  0  0  0
    6.1710   -0.6232   -3.0048 N   0  0  0  0  0  0  0  0  0  0  0  0
   -3.4927    1.8361    0.2861 N   0  0  0  0  0  0  0  0  0  0  0  0
   -6.0403   -0.2765   -1.2921 N   0  0  0  0  0  0  0  0  0  0  0  0
   -5.6080    2.0322   -1.5505 N   0  0  0  0  0  0  0  0  0  0  0  0
    4.7149    3.6597   -0.4693 N   0  0  0  0  0  0  0  0  0  0  0  0
   -7.8877   -0.7541   -2.7170 N   0  0  0  0  0  0  0  0  0  0  0  0
    2.6276    6.6235    0.3831 N   0  0  0  0  0  0  0  0  0  0  0  0
   -1.2243   -3.1990   -0.3846 C   0  0  1  0  0  0  0  0  0  0  0  0
   -2.4738   -2.6034    0.3030 C   0  0  1  0  0  0  0  0  0  0  0  0
   -1.5951   -2.5707    1.5880 C   0  0  0  0  0  0  0  0  0  0  0  0
    0.8305   -2.9679    0.9902 C   0  0  0  0  0  0  0  0  0  0  0  0
    1.6463   -3.0564   -0.0856 C   0  0  0  0  0  0  0  0  0  0  0  0
    1.1516   -2.9831   -1.5279 C   0  0  0  0  0  0  0  0  0  0  0  0
    3.1443   -3.2234   -0.0034 C   0  0  0  0  0  0  0  0  0  0  0  0
    1.4211   -2.8754    2.3919 C   0  0  0  0  0  0  0  0  0  0  0  0
   -3.8610   -0.5485    0.6106 C   0  0  0  0  0  0  0  0  0  0  0  0
    3.7932   -0.7361   -0.2658 C   0  0  0  0  0  0  0  0  0  0  0  0
    5.2807   -0.8315   -2.0109 C   0  0  0  0  0  0  0  0  0  0  0  0
    4.6577    0.0480   -1.1144 C   0  0  0  0  0  0  0  0  0  0  0  0
   -4.1853    0.7805   -0.0191 C   0  0  0  0  0  0  0  0  0  0  0  0
    5.1873   -3.3249   -2.3946 C   0  0  0  0  0  0  0  0  0  0  0  0
   -5.3123    0.8610   -0.9867 C   0  0  0  0  0  0  0  0  0  0  0  0
    4.2590    2.3664   -0.1942 C   0  0  0  0  0  0  0  0  0  0  0  0
   -1.4060    2.4380    0.9924 C   0  0  0  0  0  0  0  0  0  0  0  0
   -6.9642    0.0693   -2.1615 C   0  0  0  0  0  0  0  0  0  0  0  0
   -0.8908    2.2084   -0.4253 C   0  0  0  0  0  0  0  0  0  0  0  0
   -1.9173    3.8605    1.2009 C   0  0  0  0  0  0  0  0  0  0  0  0
    4.2780    4.8231    0.2676 C   0  0  0  0  0  0  0  0  0  0  0  0
   -0.3512    2.0740    2.0290 C   0  0  0  0  0  0  0  0  0  0  0  0
    3.0451    5.4474   -0.3690 C   0  0  0  0  0  0  0  0  0  0  0  0
   -1.2955   -4.2756   -0.5800 H   0  0  0  0  0  0  0  0  0  0  0  0
   -3.3047   -3.3154    0.3736 H   0  0  0  0  0  0  0  0  0  0  0  0
    1.1316   -3.9920   -1.9545 H   0  0  0  0  0  0  0  0  0  0  0  0
    1.8258   -2.3794   -2.1416 H   0  0  0  0  0  0  0  0  0  0  0  0
   -2.5860   -0.8755   -0.9796 H   0  0  0  0  0  0  0  0  0  0  0  0
    3.5189   -3.3046    1.0215 H   0  0  0  0  0  0  0  0  0  0  0  0
    3.4392   -4.1434   -0.5172 H   0  0  0  0  0  0  0  0  0  0  0  0
    3.1558   -0.4061    0.5410 H   0  0  0  0  0  0  0  0  0  0  0  0
    5.7849   -3.9181   -1.6991 H   0  0  0  0  0  0  0  0  0  0  0  0
    4.2686   -3.8549   -2.6570 H   0  0  0  0  0  0  0  0  0  0  0  0
    5.7494   -3.1334   -3.3070 H   0  0  0  0  0  0  0  0  0  0  0  0
    5.5011    1.7750   -1.7539 H   0  0  0  0  0  0  0  0  0  0  0  0
    6.5085    0.3101   -3.2202 H   0  0  0  0  0  0  0  0  0  0  0  0
    6.5690   -1.3580   -3.5780 H   0  0  0  0  0  0  0  0  0  0  0  0
    5.3751    3.7914   -1.2293 H   0  0  0  0  0  0  0  0  0  0  0  0
    0.0238    2.7824   -0.6118 H   0  0  0  0  0  0  0  0  0  0  0  0
   -0.6555    1.1498   -0.5864 H   0  0  0  0  0  0  0  0  0  0  0  0
   -1.6171    2.4958   -1.1932 H   0  0  0  0  0  0  0  0  0  0  0  0
   -1.1005    4.5889    1.1486 H   0  0  0  0  0  0  0  0  0  0  0  0
   -2.3920    3.9630    2.1840 H   0  0  0  0  0  0  0  0  0  0  0  0
   -2.6622    4.1566    0.4542 H   0  0  0  0  0  0  0  0  0  0  0  0
    4.0747    4.5311    1.3044 H   0  0  0  0  0  0  0  0  0  0  0  0
    5.1136    5.5317    0.2719 H   0  0  0  0  0  0  0  0  0  0  0  0
    3.2602    5.7367   -1.4037 H   0  0  0  0  0  0  0  0  0  0  0  0
    2.2230    4.7231   -0.3999 H   0  0  0  0  0  0  0  0  0  0  0  0
   -8.5733   -0.4163   -3.3844 H   0  0  0  0  0  0  0  0  0  0  0  0
   -7.9306   -1.7416   -2.4878 H   0  0  0  0  0  0  0  0  0  0  0  0
    1.4039    2.6297    2.6702 H   0  0  0  0  0  0  0  0  0  0  0  0
    1.7733    7.0003   -0.0254 H   0  0  0  0  0  0  0  0  0  0  0  0
    2.3929    6.3553    1.3380 H   0  0  0  0  0  0  0  0  0  0  0  0
  1 23  1  0  0  0  0
  1 28  1  0  0  0  0
  2 19  1  0  0  0  0
  2 40  1  0  0  0  0
  3 25  2  0  0  0  0
  4 30  1  0  0  0  0
  5 30  2  0  0  0  0
  6 31  2  0  0  0  0
  7 17  1  0  0  0  0
  7 39  1  0  0  0  0
  8 38  2  0  0  0  0
  9 44  1  0  0  0  0
  9 73  1  0  0  0  0
 10 44  2  0  0  0  0
 11 23  1  0  0  0  0
 11 25  1  0  0  0  0
 11 26  1  0  0  0  0
 12 24  1  0  0  0  0
 12 31  1  0  0  0  0
 12 50  1  0  0  0  0
 13 14  1  0  0  0  0
 13 29  1  0  0  0  0
 13 32  2  0  0  0  0
 14 33  1  0  0  0  0
 14 36  1  0  0  0  0
 15 34  1  0  0  0  0
 15 38  1  0  0  0  0
 15 57  1  0  0  0  0
 16 33  1  0  0  0  0
 16 58  1  0  0  0  0
 16 59  1  0  0  0  0
 17 35  2  0  0  0  0
 18 37  1  0  0  0  0
 18 40  2  0  0  0  0
 19 37  2  0  0  0  0
 20 38  1  0  0  0  0
 20 43  1  0  0  0  0
 20 60  1  0  0  0  0
 21 40  1  0  0  0  0
 21 71  1  0  0  0  0
 21 72  1  0  0  0  0
 22 45  1  0  0  0  0
 22 74  1  0  0  0  0
 22 75  1  0  0  0  0
 23 24  1  0  0  0  0
 23 46  1  0  0  0  0
 24 25  1  0  0  0  0
 24 47  1  0  0  0  0
 26 27  2  0  0  0  0
 26 30  1  0  0  0  0
 27 28  1  0  0  0  0
 27 29  1  0  0  0  0
 28 48  1  0  0  0  0
 28 49  1  0  0  0  0
 29 51  1  0  0  0  0
 29 52  1  0  0  0  0
 31 35  1  0  0  0  0
 32 34  1  0  0  0  0
 32 53  1  0  0  0  0
 33 34  2  0  0  0  0
 35 37  1  0  0  0  0
 36 54  1  0  0  0  0
 36 55  1  0  0  0  0
 36 56  1  0  0  0  0
 39 41  1  0  0  0  0
 39 42  1  0  0  0  0
 39 44  1  0  0  0  0
 41 61  1  0  0  0  0
 41 62  1  0  0  0  0
 41 63  1  0  0  0  0
 42 64  1  0  0  0  0
 42 65  1  0  0  0  0
 42 66  1  0  0  0  0
 43 45  1  0  0  0  0
 43 67  1  0  0  0  0
 43 68  1  0  0  0  0
 45 69  1  0  0  0  0
 45 70  1  0  0  0  0
M  CHG  2   4  -1  13   1
M  END
> <PUBCHEM_COMPOUND_CID>
53234134

> <PUBCHEM_CONFORMER_RMSD>
1.4

> <PUBCHEM_CONFORMER_DIVERSEORDER>
1
55
36
57
41
34
65
54
69
37
4
51
53
46
21
60
22
68
44
19
9
73
27
28
20
40
70
64
48
6
31
72
13
45
23
15
74
61
67
52
11
62
25
10
42
50
18
49
7
58
8
38
17
59
47
14
24
2
39
32
30
71
12
26
56
43
3
5
33
63
29
66
16
35

> <PUBCHEM_MMFF94_PARTIAL_CHARGES>
54
1 -0.45
10 -0.57
11 -0.39
12 -0.65
13 -0.26
14 0.31
15 -0.49
16 -0.88
17 -0.51
18 -0.57
19 -0.51
2 0.18
20 -0.73
21 -0.88
22 -0.99
23 0.44
24 0.28
25 0.58
26 -0.14
27 -0.28
28 0.37
29 0.65
3 -0.57
30 1.05
31 0.63
32 0.18
33 -0.07
34 0.06
35 0.54
36 0.26
37 0.43
38 0.69
39 0.34
4 -0.9
40 0.46
43 0.3
44 0.66
45 0.27
5 -0.9
50 0.37
53 0.15
57 0.37
58 0.4
59 0.4
6 -0.57
60 0.37
7 -0.22
71 0.4
72 0.4
73 0.5
74 0.36
75 0.36
8 -0.57
9 -0.65

> <PUBCHEM_EFFECTIVE_ROTOR_COUNT>
15.6

> <PUBCHEM_PHARMACOPHORE_FEATURES>
25
1 10 acceptor
1 12 donor
1 15 donor
1 16 cation
1 16 donor
1 17 acceptor
1 20 donor
1 21 donor
1 22 cation
1 22 donor
1 3 acceptor
1 4 acceptor
1 5 acceptor
1 6 acceptor
1 8 acceptor
1 9 acceptor
3 18 19 37 cation
3 18 21 40 cation
3 39 41 42 hydrophobe
3 4 5 30 anion
3 9 10 44 anion
4 11 23 24 25 rings
5 13 14 32 33 34 rings
5 2 18 19 37 40 rings
6 1 11 23 26 27 28 rings

> <PUBCHEM_HEAVY_ATOM_COUNT>
45

> <PUBCHEM_ATOM_DEF_STEREO_COUNT>
2

> <PUBCHEM_ATOM_UDEF_STEREO_COUNT>
0

> <PUBCHEM_BOND_DEF_STEREO_COUNT>
1

> <PUBCHEM_BOND_UDEF_STEREO_COUNT>
0

> <PUBCHEM_ISOTOPIC_ATOM_COUNT>
0

> <PUBCHEM_COMPONENT_COUNT>
1

> <PUBCHEM_CACTVS_TAUTO_COUNT>
150

> <PUBCHEM_CONFORMER_ID>
032C49D600000001

> <PUBCHEM_MMFF94_ENERGY>
95.3379

> <PUBCHEM_FEATURE_SELFOVERLAP>
127.541

> <PUBCHEM_SHAPE_FINGERPRINT>
10675989 125 18410570721103647520
12124843 1 18339929207741825286
13782708 43 15338537381250701423
14747282 140 16182455767060725208
14931854 50 18339646633274728094
15001296 14 18340759412325480871
15082195 135 18268138765598398679
15274700 21 17824854280629503251
15721738 15 18411134774916638652
15968369 26 18055901345869356048
16067689 134 17909558251030841417
16992828 155 16322883227655280140
20764821 26 17983854764285206656
354706 132 17679306527581218980
42767 28 18408609127829235998
50150288 127 16122526619659077936
5265222 85 17903062680189449545

> <PUBCHEM_SHAPE_MULTIPOLES>
827.05
15.06
7.45
2.97
15.88
9.62
-0.45
4.08
16.42
-10.06
-1.96
0.65
-1.82
1.64

> <PUBCHEM_SHAPE_SELFOVERLAP>
1716.258

> <PUBCHEM_SHAPE_VOLUME>
474.6

> <PUBCHEM_COORDINATE_TYPE>
2
5
10

$$$$
