9852981
  -OEChem-10202403053D

 64 68  0     1  0  0  0  0  0999 V2000
   -0.3284    1.9670    2.4381 S   0  0  0  0  0  0  0  0  0  0  0  0
    3.6136    3.3909    1.1051 S   0  0  0  0  0  0  0  0  0  0  0  0
    5.4684    1.2803   -0.0774 S   0  0  0  0  0  0  0  0  0  0  0  0
   -2.1903   -4.0696   -0.9088 S   0  0  0  0  0  0  0  0  0  0  0  0
    0.5926   -1.6992   -3.0939 P   0  0  0  0  0  0  0  0  0  0  0  0
   -1.3460    2.8606   -2.0097 O   0  0  0  0  0  0  0  0  0  0  0  0
    2.0544    2.4088   -1.9924 O   0  5  0  0  0  0  0  0  0  0  0  0
    1.9142    4.6725   -1.6929 O   0  0  0  0  0  0  0  0  0  0  0  0
   -4.0045    1.1775   -1.3697 O   0  0  0  0  0  0  0  0  0  0  0  0
   -5.5248    0.1600    1.1414 O   0  0  0  0  0  0  0  0  0  0  0  0
    1.2556   -0.8520   -1.8710 O   0  0  0  0  0  0  0  0  0  0  0  0
    1.9376   -2.3636   -3.7269 O   0  0  0  0  0  0  0  0  0  0  0  0
   -0.0719   -0.7685   -4.0777 O   0  0  0  0  0  0  0  0  0  0  0  0
   -0.2251    3.1097    0.0479 N   0  0  0  0  0  0  0  0  0  0  0  0
   -2.6493    1.2991    0.5431 N   0  0  0  0  0  0  0  0  0  0  0  0
   -4.8463   -1.0015    0.7468 N   0  0  0  0  0  0  0  0  0  0  0  0
    3.2957    0.7207    1.2069 N   0  0  0  0  0  0  0  0  0  0  0  0
   -1.9113   -1.5836   -1.3119 N   0  0  0  0  0  0  0  0  0  0  0  0
   -3.3307   -3.0907   -0.1727 N   0  0  0  0  0  0  0  0  0  0  0  0
    2.1248   -4.1383    1.7481 N   0  3  0  0  0  0  0  0  0  0  0  0
   -0.2631   -2.9281   -2.3829 N   0  0  0  0  0  0  0  0  0  0  0  0
   -1.0081    3.1622    1.2673 C   0  0  1  0  0  0  0  0  0  0  0  0
   -2.1995    2.6839    0.4077 C   0  0  1  0  0  0  0  0  0  0  0  0
   -1.2526    2.9143   -0.8059 C   0  0  0  0  0  0  0  0  0  0  0  0
    1.1271    3.2445   -0.0046 C   0  0  0  0  0  0  0  0  0  0  0  0
    1.3023    2.7889    2.4931 C   0  0  0  0  0  0  0  0  0  0  0  0
    1.8736    3.1418    1.1214 C   0  0  0  0  0  0  0  0  0  0  0  0
    1.7677    3.4658   -1.3783 C   0  0  0  0  0  0  0  0  0  0  0  0
   -3.5049    0.6987   -0.3644 C   0  0  0  0  0  0  0  0  0  0  0  0
   -3.8280   -0.7305   -0.0127 C   0  0  0  0  0  0  0  0  0  0  0  0
    4.0504    1.7120    0.7873 C   0  0  0  0  0  0  0  0  0  0  0  0
   -3.0073   -1.8412   -0.5061 C   0  0  0  0  0  0  0  0  0  0  0  0
    3.8727   -0.4735    0.8211 C   0  0  0  0  0  0  0  0  0  0  0  0
    5.0538   -0.3725    0.1163 C   0  0  0  0  0  0  0  0  0  0  0  0
    3.2706   -1.7359    1.1403 C   0  0  0  0  0  0  0  0  0  0  0  0
   -1.3622   -2.7405   -1.6107 C   0  0  0  0  0  0  0  0  0  0  0  0
    1.8881   -1.8374    1.2636 C   0  0  0  0  0  0  0  0  0  0  0  0
    4.0680   -2.8610    1.3272 C   0  0  0  0  0  0  0  0  0  0  0  0
   -6.6160   -0.2247    1.9631 C   0  0  0  0  0  0  0  0  0  0  0  0
    1.3335   -3.0711    1.5734 C   0  0  0  0  0  0  0  0  0  0  0  0
    3.4582   -4.0687    1.6354 C   0  0  0  0  0  0  0  0  0  0  0  0
    1.5121   -5.4230    2.0740 C   0  0  0  0  0  0  0  0  0  0  0  0
   -7.3644    1.0158    2.4018 C   0  0  0  0  0  0  0  0  0  0  0  0
   -1.1230    4.1806    1.6572 H   0  0  0  0  0  0  0  0  0  0  0  0
   -3.0469    3.3796    0.4243 H   0  0  0  0  0  0  0  0  0  0  0  0
   -2.3316    0.7428    1.3334 H   0  0  0  0  0  0  0  0  0  0  0  0
    1.2072    3.7042    3.0888 H   0  0  0  0  0  0  0  0  0  0  0  0
    1.9665    2.1123    3.0404 H   0  0  0  0  0  0  0  0  0  0  0  0
    5.6839   -1.1452   -0.3018 H   0  0  0  0  0  0  0  0  0  0  0  0
    1.2338   -0.9824    1.1218 H   0  0  0  0  0  0  0  0  0  0  0  0
    5.1511   -2.8308    1.2602 H   0  0  0  0  0  0  0  0  0  0  0  0
   -6.2430   -0.7637    2.8413 H   0  0  0  0  0  0  0  0  0  0  0  0
   -7.2866   -0.8833    1.3995 H   0  0  0  0  0  0  0  0  0  0  0  0
    0.2656   -3.2137    1.6874 H   0  0  0  0  0  0  0  0  0  0  0  0
    4.0238   -4.9776    1.8020 H   0  0  0  0  0  0  0  0  0  0  0  0
    0.0294   -3.8944   -2.5135 H   0  0  0  0  0  0  0  0  0  0  0  0
    2.1277   -6.2349    1.6770 H   0  0  0  0  0  0  0  0  0  0  0  0
    0.5187   -5.4807    1.6202 H   0  0  0  0  0  0  0  0  0  0  0  0
    1.4422   -5.4899    3.1628 H   0  0  0  0  0  0  0  0  0  0  0  0
   -8.2141    0.7552    3.0388 H   0  0  0  0  0  0  0  0  0  0  0  0
   -7.7315    1.5721    1.5329 H   0  0  0  0  0  0  0  0  0  0  0  0
   -6.7020    1.6903    2.9545 H   0  0  0  0  0  0  0  0  0  0  0  0
    1.7650   -0.0408   -2.0827 H   0  0  0  0  0  0  0  0  0  0  0  0
    2.5533   -1.7880   -4.2287 H   0  0  0  0  0  0  0  0  0  0  0  0
  1 22  1  0  0  0  0
  1 26  1  0  0  0  0
  2 27  1  0  0  0  0
  2 31  1  0  0  0  0
  3 31  1  0  0  0  0
  3 34  1  0  0  0  0
  4 19  1  0  0  0  0
  4 36  1  0  0  0  0
  5 11  1  0  0  0  0
  5 12  1  0  0  0  0
  5 13  2  0  0  0  0
  5 21  1  0  0  0  0
  6 24  2  0  0  0  0
  7 28  1  0  0  0  0
  8 28  2  0  0  0  0
  9 29  2  0  0  0  0
 10 16  1  0  0  0  0
 10 39  1  0  0  0  0
 11 63  1  0  0  0  0
 12 64  1  0  0  0  0
 14 22  1  0  0  0  0
 14 24  1  0  0  0  0
 14 25  1  0  0  0  0
 15 23  1  0  0  0  0
 15 29  1  0  0  0  0
 15 46  1  0  0  0  0
 16 30  2  0  0  0  0
 17 31  2  0  0  0  0
 17 33  1  0  0  0  0
 18 32  1  0  0  0  0
 18 36  2  0  0  0  0
 19 32  2  0  0  0  0
 20 40  2  0  0  0  0
 20 41  1  0  0  0  0
 20 42  1  0  0  0  0
 21 36  1  0  0  0  0
 21 56  1  0  0  0  0
 22 23  1  0  0  0  0
 22 44  1  0  0  0  0
 23 24  1  0  0  0  0
 23 45  1  0  0  0  0
 25 27  2  0  0  0  0
 25 28  1  0  0  0  0
 26 27  1  0  0  0  0
 26 47  1  0  0  0  0
 26 48  1  0  0  0  0
 29 30  1  0  0  0  0
 30 32  1  0  0  0  0
 33 34  2  0  0  0  0
 33 35  1  0  0  0  0
 34 49  1  0  0  0  0
 35 37  2  0  0  0  0
 35 38  1  0  0  0  0
 37 40  1  0  0  0  0
 37 50  1  0  0  0  0
 38 41  2  0  0  0  0
 38 51  1  0  0  0  0
 39 43  1  0  0  0  0
 39 52  1  0  0  0  0
 39 53  1  0  0  0  0
 40 54  1  0  0  0  0
 41 55  1  0  0  0  0
 42 57  1  0  0  0  0
 42 58  1  0  0  0  0
 42 59  1  0  0  0  0
 43 60  1  0  0  0  0
 43 61  1  0  0  0  0
 43 62  1  0  0  0  0
M  CHG  2   7  -1  20   1
M  END
> <PUBCHEM_COMPOUND_CID>
9852981

> <PUBCHEM_CONFORMER_RMSD>
1.2

> <PUBCHEM_CONFORMER_DIVERSEORDER>
1
50
16
9
49
41
72
54
14
68
37
10
22
36
48
65
69
32
6
34
3
25
51
43
62
47
52
63
44
35
11
29
71
20
38
66
39
70
30
27
5
7
26
28
42
19
24
55
31
57
46
56
60
13
40
59
21
12
45
64
53
18
4
15
33
23
17
67
61
2
58
8

> <PUBCHEM_MMFF94_PARTIAL_CHARGES>
51
1 -0.45
10 -0.22
11 -0.77
12 -0.77
13 -0.7
14 -0.39
15 -0.65
16 -0.51
17 -0.57
18 -0.57
19 -0.51
2 -0.16
20 -0.21
21 -0.76
22 0.44
23 0.28
24 0.58
25 -0.14
26 0.37
27 -0.04
28 1.05
29 0.63
3 -0.08
30 0.54
31 0.43
32 0.43
33 0.17
34 -0.11
35 0.05
36 0.46
37 -0.15
38 -0.15
39 0.28
4 0.18
40 0.21
41 0.21
42 0.49
46 0.37
49 0.15
5 1.52
50 0.15
51 0.15
54 0.15
55 0.15
56 0.4
6 -0.57
63 0.5
64 0.5
7 -0.9
8 -0.9
9 -0.57

> <PUBCHEM_EFFECTIVE_ROTOR_COUNT>
12.6

> <PUBCHEM_PHARMACOPHORE_FEATURES>
20
1 11 acceptor
1 12 acceptor
1 13 acceptor
1 15 donor
1 16 acceptor
1 17 acceptor
1 21 donor
1 6 acceptor
1 7 acceptor
1 8 acceptor
1 9 acceptor
3 18 19 32 cation
3 18 21 36 cation
3 7 8 28 anion
4 14 22 23 24 rings
4 5 11 12 13 anion
5 3 17 31 33 34 rings
5 4 18 19 32 36 rings
6 1 14 22 25 26 27 rings
6 20 35 37 38 40 41 rings

> <PUBCHEM_HEAVY_ATOM_COUNT>
43

> <PUBCHEM_ATOM_DEF_STEREO_COUNT>
2

> <PUBCHEM_ATOM_UDEF_STEREO_COUNT>
0

> <PUBCHEM_BOND_DEF_STEREO_COUNT>
1

> <PUBCHEM_BOND_UDEF_STEREO_COUNT>
0

> <PUBCHEM_ISOTOPIC_ATOM_COUNT>
0

> <PUBCHEM_COMPONENT_COUNT>
1

> <PUBCHEM_CACTVS_TAUTO_COUNT>
8

> <PUBCHEM_CONFORMER_ID>
0096583500000001

> <PUBCHEM_MMFF94_ENERGY>
51.2207

> <PUBCHEM_FEATURE_SELFOVERLAP>
102.108

> <PUBCHEM_SHAPE_FINGERPRINT>
10190108 129 18334299751864140114
12422481 6 18270688678970279697
13165054 342 18261960755526653892
14004853 49 18048874388067098792
14279260 333 18337664202091445658
15274700 242 18193810822283414768
15297060 5 17274831289188512002
15721738 202 17023487256095323315
18738133 556 11458718260874631609
19319366 153 18337664308895006202
20764821 26 17324917552874750202
20775530 9 18265041453852672760
35225 105 17260429636748039782
463206 1 18267865175569402216
469060 322 18187631527943478112
66674814 147 17758655025956201272

> <PUBCHEM_SHAPE_MULTIPOLES>
817.36
10.76
7.28
3.22
13.47
3.19
-2.44
-0.77
7.06
-4.48
1.24
0.23
1.48
-2.56

> <PUBCHEM_SHAPE_SELFOVERLAP>
1693.277

> <PUBCHEM_SHAPE_VOLUME>
470.4

> <PUBCHEM_COORDINATE_TYPE>
2
5
10

$$$$
