135413542
  -OEChem-10202405403D

 58 62  0     1  0  0  0  0  0999 V2000
   -1.1597    1.7138   -0.9163 S   0  0  0  0  0  0  0  0  0  0  0  0
   -8.3544   -1.4003   -0.1609 S   0  0  0  0  0  0  0  0  0  0  0  0
   -1.3799   -2.7671    0.3319 O   0  0  0  0  0  0  0  0  0  0  0  0
    5.5048    1.6905    0.8699 O   0  0  0  0  0  0  0  0  0  0  0  0
    1.7299   -2.6278   -0.1205 O   0  0  0  0  0  0  0  0  0  0  0  0
    1.9366   -1.4301    1.8167 O   0  0  0  0  0  0  0  0  0  0  0  0
   -4.3877    1.0287   -2.0236 O   0  0  0  0  0  0  0  0  0  0  0  0
   -3.9153    2.6405    0.5827 O   0  0  0  0  0  0  0  0  0  0  0  0
    5.9981   -0.3712   -0.1568 N   0  0  0  0  0  0  0  0  0  0  0  0
   -0.3928   -0.7995   -0.5160 N   0  0  0  0  0  0  0  0  0  0  0  0
    9.3305    0.9526    0.0033 N   0  0  0  0  0  0  0  0  0  0  0  0
   -3.4382   -0.3417   -0.3701 N   0  0  0  0  0  0  0  0  0  0  0  0
   -5.1599    2.0635    0.8488 N   0  0  0  0  0  0  0  0  0  0  0  0
   -7.6123    0.6510    1.1285 N   0  0  0  0  0  0  0  0  0  0  0  0
   -6.8423   -0.8073   -0.5639 N   0  0  0  0  0  0  0  0  0  0  0  0
   -9.7692   -0.1499    1.7432 N   0  0  0  0  0  0  0  0  0  0  0  0
    7.4301   -0.4032   -0.0504 C   0  0  2  0  0  0  0  0  0  0  0  0
   -1.1371   -0.0052   -1.4785 C   0  0  1  0  0  0  0  0  0  0  0  0
   -2.3491   -0.9121   -1.1520 C   0  0  1  0  0  0  0  0  0  0  0  0
    7.9174   -0.3194    1.3954 C   0  0  0  0  0  0  0  0  0  0  0  0
    8.0941    0.7720   -0.7535 C   0  0  0  0  0  0  0  0  0  0  0  0
    5.2809   -1.3798   -0.9077 C   0  0  0  0  0  0  0  0  0  0  0  0
    8.9369    0.8110    1.4031 C   0  0  0  0  0  0  0  0  0  0  0  0
    3.8072   -1.1141   -0.6391 C   0  0  0  0  0  0  0  0  0  0  0  0
   -1.3382   -1.7433   -0.3101 C   0  0  0  0  0  0  0  0  0  0  0  0
    3.8065    0.2751   -0.0863 C   0  0  0  0  0  0  0  0  0  0  0  0
    5.1905    0.6654    0.2894 C   0  0  0  0  0  0  0  0  0  0  0  0
    0.8622   -0.4973   -0.0874 C   0  0  0  0  0  0  0  0  0  0  0  0
    1.4093    0.7216   -0.3151 C   0  0  0  0  0  0  0  0  0  0  0  0
    0.6574    1.8751   -0.9743 C   0  0  0  0  0  0  0  0  0  0  0  0
    2.7631    1.0960    0.0495 C   0  0  0  0  0  0  0  0  0  0  0  0
    1.5687   -1.5473    0.6669 C   0  0  0  0  0  0  0  0  0  0  0  0
   -4.3432    0.5707   -0.8930 C   0  0  0  0  0  0  0  0  0  0  0  0
   -5.3770    1.0209    0.1054 C   0  0  0  0  0  0  0  0  0  0  0  0
   -6.6478    0.2551    0.2174 C   0  0  0  0  0  0  0  0  0  0  0  0
   -8.6202   -0.1870    1.0234 C   0  0  0  0  0  0  0  0  0  0  0  0
    7.7903   -1.3455   -0.4844 H   0  0  0  0  0  0  0  0  0  0  0  0
   -0.7681   -0.1357   -2.5035 H   0  0  0  0  0  0  0  0  0  0  0  0
   -2.7266   -1.4701   -2.0172 H   0  0  0  0  0  0  0  0  0  0  0  0
    8.4038   -1.2646    1.6671 H   0  0  0  0  0  0  0  0  0  0  0  0
    7.1241   -0.1438    2.1293 H   0  0  0  0  0  0  0  0  0  0  0  0
    8.3026    0.5453   -1.8040 H   0  0  0  0  0  0  0  0  0  0  0  0
    7.5005    1.6920   -0.7258 H   0  0  0  0  0  0  0  0  0  0  0  0
    5.5952   -2.3824   -0.5977 H   0  0  0  0  0  0  0  0  0  0  0  0
    5.5204   -1.2429   -1.9685 H   0  0  0  0  0  0  0  0  0  0  0  0
    8.4742    1.7382    1.7614 H   0  0  0  0  0  0  0  0  0  0  0  0
    9.7952    0.5857    2.0426 H   0  0  0  0  0  0  0  0  0  0  0  0
    3.6789   -1.8307    0.1653 H   0  0  0  0  0  0  0  0  0  0  0  0
    3.2110   -1.2903   -1.5357 H   0  0  0  0  0  0  0  0  0  0  0  0
    9.7296    1.8737   -0.1687 H   0  0  0  0  0  0  0  0  0  0  0  0
    0.8887    2.8228   -0.4756 H   0  0  0  0  0  0  0  0  0  0  0  0
    0.9701    1.9649   -2.0209 H   0  0  0  0  0  0  0  0  0  0  0  0
    2.9053    2.0984    0.4447 H   0  0  0  0  0  0  0  0  0  0  0  0
   -3.5563   -0.6127    0.6035 H   0  0  0  0  0  0  0  0  0  0  0  0
    2.1553   -3.3757    0.3515 H   0  0  0  0  0  0  0  0  0  0  0  0
   -3.9086    3.3864    1.2059 H   0  0  0  0  0  0  0  0  0  0  0  0
   -9.9373    0.5623    2.4461 H   0  0  0  0  0  0  0  0  0  0  0  0
  -10.5075   -0.8328    1.6082 H   0  0  0  0  0  0  0  0  0  0  0  0
  1 18  1  0  0  0  0
  1 30  1  0  0  0  0
  2 15  1  0  0  0  0
  2 36  1  0  0  0  0
  3 25  2  0  0  0  0
  4 27  2  0  0  0  0
  5 32  1  0  0  0  0
  5 55  1  0  0  0  0
  6 32  2  0  0  0  0
  7 33  2  0  0  0  0
  8 13  1  0  0  0  0
  8 56  1  0  0  0  0
  9 17  1  0  0  0  0
  9 22  1  0  0  0  0
  9 27  1  0  0  0  0
 10 18  1  0  0  0  0
 10 25  1  0  0  0  0
 10 28  1  0  0  0  0
 11 21  1  0  0  0  0
 11 23  1  0  0  0  0
 11 50  1  0  0  0  0
 12 19  1  0  0  0  0
 12 33  1  0  0  0  0
 12 54  1  0  0  0  0
 13 34  2  0  0  0  0
 14 35  1  0  0  0  0
 14 36  2  0  0  0  0
 15 35  2  0  0  0  0
 16 36  1  0  0  0  0
 16 57  1  0  0  0  0
 16 58  1  0  0  0  0
 17 20  1  0  0  0  0
 17 21  1  0  0  0  0
 17 37  1  0  0  0  0
 18 19  1  0  0  0  0
 18 38  1  0  0  0  0
 19 25  1  0  0  0  0
 19 39  1  0  0  0  0
 20 23  1  0  0  0  0
 20 40  1  0  0  0  0
 20 41  1  0  0  0  0
 21 42  1  0  0  0  0
 21 43  1  0  0  0  0
 22 24  1  0  0  0  0
 22 44  1  0  0  0  0
 22 45  1  0  0  0  0
 23 46  1  0  0  0  0
 23 47  1  0  0  0  0
 24 26  1  0  0  0  0
 24 48  1  0  0  0  0
 24 49  1  0  0  0  0
 26 27  1  0  0  0  0
 26 31  2  0  0  0  0
 28 29  2  0  0  0  0
 28 32  1  0  0  0  0
 29 30  1  0  0  0  0
 29 31  1  0  0  0  0
 30 51  1  0  0  0  0
 30 52  1  0  0  0  0
 31 53  1  0  0  0  0
 33 34  1  0  0  0  0
 34 35  1  0  0  0  0
M  END
> <PUBCHEM_COMPOUND_CID>
135413542

> <PUBCHEM_CONFORMER_RMSD>
1

> <PUBCHEM_CONFORMER_DIVERSEORDER>
6
75
86
11
70
20
48
44
5
66
49
77
59
36
37
82
47
67
42
64
3
79
17
69
22
84
13
90
85
56
76
50
21
15
34
45
62
65
7
71
28
74
38
31
39
27
51
10
60
41
46
23
25
81
32
68
30
89
43
4
2
87
52
78
61
35
63
73
57
80
40
33
72
1
83
88
8
12
54
18
24
29
53
14
19
26
16
55
58
9

> <PUBCHEM_MMFF94_PARTIAL_CHARGES>
42
1 -0.45
10 -0.39
11 -0.9
12 -0.65
13 -0.51
14 -0.57
15 -0.51
16 -0.88
17 0.3
18 0.44
19 0.28
2 0.18
21 0.27
22 0.3
23 0.27
24 0.14
25 0.58
26 -0.12
27 0.62
28 0.12
29 -0.14
3 -0.57
30 0.37
31 -0.15
32 0.71
33 0.63
34 0.54
35 0.43
36 0.46
4 -0.57
5 -0.65
50 0.36
53 0.15
54 0.37
55 0.5
56 0.4
57 0.4
58 0.4
6 -0.57
7 -0.57
8 -0.34
9 -0.66

> <PUBCHEM_EFFECTIVE_ROTOR_COUNT>
9.2

> <PUBCHEM_PHARMACOPHORE_FEATURES>
19
1 11 cation
1 11 donor
1 12 donor
1 13 acceptor
1 16 donor
1 3 acceptor
1 4 acceptor
1 5 acceptor
1 6 acceptor
1 7 acceptor
1 8 anion
3 14 15 35 cation
3 14 16 36 cation
3 5 6 32 anion
4 10 18 19 25 rings
5 11 17 20 21 23 rings
5 2 14 15 35 36 rings
5 9 22 24 26 27 rings
6 1 10 18 28 29 30 rings

> <PUBCHEM_HEAVY_ATOM_COUNT>
36

> <PUBCHEM_ATOM_DEF_STEREO_COUNT>
3

> <PUBCHEM_ATOM_UDEF_STEREO_COUNT>
0

> <PUBCHEM_BOND_DEF_STEREO_COUNT>
2

> <PUBCHEM_BOND_UDEF_STEREO_COUNT>
0

> <PUBCHEM_ISOTOPIC_ATOM_COUNT>
0

> <PUBCHEM_COMPONENT_COUNT>
1

> <PUBCHEM_CACTVS_TAUTO_COUNT>
-1

> <PUBCHEM_CONFORMER_ID>
08123F2600000006

> <PUBCHEM_MMFF94_ENERGY>
106.035

> <PUBCHEM_FEATURE_SELFOVERLAP>
96.97

> <PUBCHEM_SHAPE_FINGERPRINT>
10 15 18040434404078552330
10076449 9 18186802486905660245
10100884 174 18121776390857823599
10369192 42 17418373572009232317
106641 1 18333735719578966251
11181472 205 14907913643420613098
12133447 93 18268442247924146636
12539745 222 14332837279979445175
12664476 115 18411978074691471897
14251764 18 18412543214882580862
14394314 77 18270404880522575809
14415361 349 12540698136970173681
14849402 71 18342459287499266017
14856354 85 16009038275833797083
15183329 4 17917983954319375228
15247644 1 16081088181943479131
15728490 51 18409730690795282871
18335252 98 18114181921739855638
18603816 31 13912611606433222937
18608769 82 18260828219536518878
19315958 150 17917714595915047950
20105231 36 17603866672857684282
21033648 29 17845353588681935752
21095086 128 14851882552349097192
22224240 67 17022903454117533698
23559900 14 18339068411488668596
23576562 1 13397759771024082593
24771293 8 18411984641933578333
3009799 131 12319734765191935615
3178227 256 18186802487385402408
335352 9 18335700580927370990
3383291 50 18335140912440227155
3633792 109 15482676780056821142
4093350 32 17346599643370974878
4325135 7 12035447237879801260
4625314 4 11169917182400942998
59682541 35 18040999556938999848
6009941 240 12247673886195395909
6081469 158 12247685963769623128
6523845 18 15791724226884175392
9663363 56 17458344144679661935
9962374 69 18041277780762507485

> <PUBCHEM_SHAPE_MULTIPOLES>
673.5
29.5
2.09
1.33
4.57
0.21
0.12
-3
11.31
0.77
0.04
0.57
-0.11
0.03

> <PUBCHEM_SHAPE_SELFOVERLAP>
1441.004

> <PUBCHEM_SHAPE_VOLUME>
374.3

> <PUBCHEM_COORDINATE_TYPE>
2
5
10

$$$$
