ZINC37434401


 19 19  0  0  0  0  0  0  0  0999 V2000
   -3.6245   -3.4493   -1.0194 C   0  0  0  0  0
   -5.3700   -2.2657    0.1594 C   0  0  0  0  0
   -2.8219   -2.3092   -0.9756 C   0  0  0  0  0
   -4.5674   -1.1256    0.2031 C   0  0  0  0  0
   -4.8986   -3.4274   -0.4519 C   0  0  0  0  0
   -3.2933   -1.1474   -0.3644 C   0  0  0  0  0
   -2.7993    1.2254    0.2442 C   0  0  0  0  0
   -1.6847    2.2174    0.0998 C   0  0  0  0  0
    2.9215    0.4314   -1.8513 C   0  0  0  0  0
   -5.7571   -4.6458   -0.4994 C   0  0  0  0  0
    2.0246    0.7958   -0.6637 C   0  0  0  0  0
    1.5651    2.2506   -0.5828 C   0  0  0  0  0
    0.7092    2.5574    0.6436 C   0  0  0  0  0
   -2.4801    0.0083   -0.3195 N   0  0  0  0  0
   -0.5041    1.7883    0.6719 N   0  0  0  0  0
    3.1979   -0.7997   -1.9364 O   0  0  0  0  0
   -3.7984    1.6042    0.8325 O   0  0  0  0  0
   -1.9168    3.2558   -0.4984 O   0  0  0  0  0
    3.2638    1.3825   -2.6062 O   0  0  0  0  0
  1  5  1  0  0  0
  2  4  1  0  0  0
  3  6  1  0  0  0
  6 14  1  0  0  0
  7  8  1  0  0  0
  7 14  1  0  0  0
  8 15  1  0  0  0
  9 16  1  0  0  0
 10  5  1  0  0  0
 11  9  1  0  0  0
 11 12  1  0  0  0
 12 13  1  0  0  0
 13 15  1  0  0  0
  1  3  2  0  0  0
  2  5  2  0  0  0
  4  6  2  0  0  0
  7 17  2  0  0  0
  8 18  2  0  0  0
  9 19  2  0  0  0
M  CHG  1  16  -1
M  END
> <rmsd>
0.598294079

$$$$
ZINC92942175


 19 21  0  0  0  0  0  0  0  0999 V2000
   -2.6368   -1.2193   -1.0595 C   0  0  0  0  0
   -3.5108   -2.2532   -0.7129 C   0  0  0  0  0
   -4.6688   -0.8067    0.8641 C   0  0  0  0  0
   -2.8003    0.0081   -0.4435 C   0  0  0  0  0
   -3.8020    0.2041    0.4966 C   0  0  0  0  0
   -4.5190   -2.0484    0.2438 C   0  0  0  0  0
    2.2562   -0.8740   -0.7840 C   0  0  0  0  0
    1.4672    1.4696   -0.8770 C   0  0  0  0  0
    0.2993    2.2484   -0.3044 C   0  0  0  0  0
   -2.9384    2.2226    0.1472 C   0  0  0  0  0
   -2.0018    1.2467   -0.5735 C   0  0  0  0  0
    1.4825    0.2003   -0.0499 C   0  0  0  0  0
    0.0073   -0.1640    0.0378 C   0  0  0  0  0
   -0.3366   -1.0203    1.2463 C   0  0  0  0  0
   -0.6894    1.1885    0.1475 N   0  0  0  0  0
    3.2085   -0.4582   -1.5004 O   0  0  0  0  0
    1.8470   -2.0519   -0.5835 O   0  0  0  0  0
   -3.8172    1.4713    1.0229 O   0  0  0  0  0
   -5.3554   -3.0728    0.5711 O   0  0  0  0  0
  1  2  1  0  0  0
  3  6  1  0  0  0
  4  5  1  0  0  0
  5 18  1  0  0  0
  6 19  1  0  0  0
  7 16  1  0  0  0
  8  9  1  0  0  0
  8 12  1  0  0  0
  9 15  1  0  0  0
 10 11  1  0  0  0
 10 18  1  0  0  0
 11  4  1  0  0  0
 11 15  1  0  0  0
 12  7  1  0  0  0
 12 13  1  0  0  0
 13 14  1  0  0  0
 13 15  1  0  0  0
  1  4  2  0  0  0
  2  6  2  0  0  0
  3  5  2  0  0  0
  7 17  2  0  0  0
M  CHG  2  15   1  16  -1
M  END
> <rmsd>
0.521614671

$$$$
ZINC94622317


 19 20  0  0  0  0  0  0  0  0999 V2000
   -4.7802   -0.7054    0.8845 C   0  0  0  0  0
   -4.7943   -1.9634    0.2820 C   0  0  0  0  0
   -2.9093   -1.3280   -1.0891 C   0  0  0  0  0
   -2.8953   -0.0700   -0.4868 C   0  0  0  0  0
   -3.8307    0.2413    0.5000 C   0  0  0  0  0
   -3.8589   -2.2747   -0.7047 C   0  0  0  0  0
    3.4323   -0.1962   -0.7223 C   0  0  0  0  0
    1.3243    1.9973    0.6037 C   0  0  0  0  0
    0.0944    2.3636   -0.2013 C   0  0  0  0  0
   -0.1566    0.1276    0.7722 C   0  0  0  0  0
    1.3198    0.4736    0.6061 C   0  0  0  0  0
   -2.4816    2.2304   -1.4511 C   0  0  0  0  0
    1.9049   -0.1138   -0.6779 C   0  0  0  0  0
   -1.8593    0.9430   -0.9162 C   0  0  0  0  0
   -0.9155    1.3062    0.1860 N   0  0  0  0  0
    3.9423   -0.7135   -1.7536 O   0  0  0  0  0
    4.0030    0.2765    0.3033 O   0  0  0  0  0
   -3.8322    1.4658    1.0975 O   0  0  0  0  0
   -3.8722   -3.4827   -1.2835 F   0  0  0  0  0
  1  5  1  0  0  0
  2  6  1  0  0  0
  3  4  1  0  0  0
  5 18  1  0  0  0
  6 19  1  0  0  0
  7 16  1  0  0  0
  8  9  1  0  0  0
  8 11  1  0  0  0
  9 15  1  0  0  0
 10 11  1  0  0  0
 10 15  1  0  0  0
 11 13  1  0  0  0
 12 14  1  0  0  0
 13  7  1  0  0  0
 14  4  1  0  0  0
 14 15  1  0  0  0
  1  2  2  0  0  0
  3  6  2  0  0  0
  4  5  2  0  0  0
  7 17  2  0  0  0
M  CHG  2  15   1  16  -1
M  END
> <rmsd>
0.452768445

$$$$
ZINC63857111


 20 22  0  0  0  0  0  0  0  0999 V2000
   -4.9057   -1.9036    0.4000 C   0  0  0  0  0
   -4.8582   -0.6210    0.9463 C   0  0  0  0  0
   -2.9927   -1.3861   -0.9818 C   0  0  0  0  0
   -2.9452   -0.1034   -0.4356 C   0  0  0  0  0
   -3.9729   -2.2861   -0.5639 C   0  0  0  0  0
   -3.8780    0.2791    0.5284 C   0  0  0  0  0
    2.5599    0.5543    0.0913 C   0  0  0  0  0
    1.4537    1.0326    0.6838 C   0  0  0  0  0
    1.4702   -0.2683   -1.9768 C   0  0  0  0  0
    2.5552   -0.0810   -1.2119 C   0  0  0  0  0
    0.2151    0.8774   -0.0689 C   0  0  0  0  0
    0.2232    0.2247   -1.4039 C   0  0  0  0  0
    3.8827   -0.5654   -1.7405 C   0  0  0  0  0
   -1.8956    0.8401   -0.8906 C   0  0  0  0  0
   -4.0243   -3.6569   -1.1491 C   0  0  0  0  0
   -0.9800    1.2244    0.2235 N   0  0  0  0  0
   -0.9671    0.2013   -1.8692 N   0  0  0  0  0
    3.8435   -1.1146   -2.8796 O   0  0  0  0  0
    4.8738   -0.3633   -0.9803 O   0  0  0  0  0
   -3.8455    1.5277    1.0724 O   0  0  0  0  0
  1  5  1  0  0  0
  2  6  1  0  0  0
  3  4  1  0  0  0
  6 20  1  0  0  0
  7 10  1  0  0  0
  8 11  1  0  0  0
  9 12  1  0  0  0
 10 13  1  0  0  0
 11 12  1  0  0  0
 13 18  1  0  0  0
 14  4  1  0  0  0
 14 16  1  0  0  0
 14 17  1  0  0  0
 15  5  1  0  0  0
  1  2  2  0  0  0
  3  5  2  0  0  0
  4  6  2  0  0  0
  7  8  2  0  0  0
  9 10  2  0  0  0
 11 16  2  0  0  0
 12 17  2  0  0  0
 13 19  2  0  0  0
M  CHG  3  16   1  17   1  18  -1
M  END
> <rmsd>
0.52997762

$$$$
ZINC92027280


 20 22  0  0  0  0  0  0  0  0999 V2000
   -3.2893   -2.0988   -0.8832 C   0  0  0  0  0
   -4.3389   -2.0891    0.0506 C   0  0  0  0  0
   -2.5292   -0.9489   -1.1129 C   0  0  0  0  0
   -4.6447   -0.9288    0.7641 C   0  0  0  0  0
    0.2458    0.7956   -1.6275 C   0  0  0  0  0
    2.5412    0.8209   -0.1522 C   0  0  0  0  0
   -2.8457    0.1966   -0.4041 C   0  0  0  0  0
    1.4472    0.4370   -2.2288 C   0  0  0  0  0
    2.6212    0.4472   -1.4840 C   0  0  0  0  0
   -3.8887    0.1994    0.5115 C   0  0  0  0  0
    0.2721    1.1535   -0.2892 C   0  0  0  0  0
   -3.2577    2.3234    0.3501 C   0  0  0  0  0
   -2.1885    1.5247   -0.4056 C   0  0  0  0  0
    1.4444    0.0469   -3.6710 C   0  0  0  0  0
    1.3928    1.1756    0.4666 N   0  0  0  0  0
   -0.9329    1.5084    0.2966 N   0  0  0  0  0
    3.8733    0.0900   -2.0496 N   0  0  0  0  0
    4.2392   -1.1097   -2.0087 O   0  0  0  0  0
    4.5806    0.9834   -2.5753 O   0  0  0  0  0
   -4.0628    1.4084    1.1364 O   0  0  0  0  0
  1  3  1  0  0  0
  2  4  1  0  0  0
  5  8  1  0  0  0
  6  9  1  0  0  0
  7 10  1  0  0  0
  9 17  1  0  0  0
 10 20  1  0  0  0
 11 15  1  0  0  0
 11 16  1  0  0  0
 12 13  1  0  0  0
 12 20  1  0  0  0
 13  7  1  0  0  0
 13 16  1  0  0  0
 14  8  1  0  0  0
 17 18  1  0  0  0
  1  2  2  0  0  0
  3  7  2  0  0  0
  4 10  2  0  0  0
  5 11  2  0  0  0
  6 15  2  0  0  0
  8  9  2  0  0  0
 17 19  2  0  0  0
M  CHG  2  17   1  18  -1
M  END
> <rmsd>
0.542393386

$$$$
ZINC94261686


 20 22  0  0  0  0  0  0  0  0999 V2000
   -3.3072   -2.0947   -0.8901 C   0  0  0  0  0
   -4.3508   -2.0857    0.0504 C   0  0  0  0  0
   -2.5461   -0.9457   -1.1212 C   0  0  0  0  0
    2.6112    0.8226   -0.0965 C   0  0  0  0  0
   -4.6497   -0.9267    0.7692 C   0  0  0  0  0
    1.3992    1.1767    0.4859 C   0  0  0  0  0
   -2.8557    0.1982   -0.4070 C   0  0  0  0  0
    2.6512    0.4563   -1.4372 C   0  0  0  0  0
   -3.8929    0.2006    0.5151 C   0  0  0  0  0
    0.2649    1.1482   -0.3092 C   0  0  0  0  0
    1.4607    0.4598   -2.1461 C   0  0  0  0  0
   -3.2582    2.3237    0.3559 C   0  0  0  0  0
   -2.1956    1.5249   -0.4088 C   0  0  0  0  0
    0.2644    0.7977   -1.6149 N   0  0  0  0  0
    1.4879    0.0879   -3.5140 N   0  0  0  0  0
   -0.9356    1.5039    0.2854 N   0  0  0  0  0
    3.8921    0.0951   -2.0285 N   0  0  0  0  0
    4.2510   -1.1062   -1.9997 O   0  0  0  0  0
    4.5926    0.9881   -2.5622 O   0  0  0  0  0
   -4.0603    1.4081    1.1446 O   0  0  0  0  0
  1  2  1  0  0  0
  3  7  1  0  0  0
  4  8  1  0  0  0
  5  9  1  0  0  0
  6 10  1  0  0  0
  8 17  1  0  0  0
  9 20  1  0  0  0
 10 16  1  0  0  0
 11 14  1  0  0  0
 11 15  1  0  0  0
 12 13  1  0  0  0
 12 20  1  0  0  0
 13  7  1  0  0  0
 13 16  1  0  0  0
 17 18  1  0  0  0
  1  3  2  0  0  0
  2  5  2  0  0  0
  4  6  2  0  0  0
  7  9  2  0  0  0
  8 11  2  0  0  0
 10 14  2  0  0  0
 17 19  2  0  0  0
M  CHG  2  17   1  18  -1
M  END
> <rmsd>
0.545903981

$$$$
ZINC94261686


 20 22  0  0  0  0  0  0  0  0999 V2000
   -3.1805   -2.1928   -0.6890 C   0  0  0  0  0
   -4.3117   -2.1116    0.1402 C   0  0  0  0  0
   -2.3881   -1.0663   -0.9257 C   0  0  0  0  0
    2.2131   -0.3887    0.2496 C   0  0  0  0  0
   -4.6677   -0.9023    0.7403 C   0  0  0  0  0
    0.9593    0.0259    0.6844 C   0  0  0  0  0
   -2.7543    0.1277   -0.3300 C   0  0  0  0  0
    2.8123    0.2459   -0.8329 C   0  0  0  0  0
   -3.8774    0.2008    0.4820 C   0  0  0  0  0
    0.3513    1.0713    0.0083 C   0  0  0  0  0
    2.1214    1.2813   -1.4412 C   0  0  0  0  0
   -3.2075    2.3044    0.2339 C   0  0  0  0  0
   -2.0832    1.4484   -0.3619 C   0  0  0  0  0
    0.9020    1.7121   -1.0471 N   0  0  0  0  0
    2.7213    1.9364   -2.5464 N   0  0  0  0  0
   -0.8982    1.4736    0.4535 N   0  0  0  0  0
    4.0942   -0.1812   -1.2742 N   0  0  0  0  0
    4.1673   -1.0805   -2.1451 O   0  0  0  0  0
    5.1152    0.3537   -0.7800 O   0  0  0  0  0
   -4.0933    1.4515    1.0031 O   0  0  0  0  0
  1  2  1  0  0  0
  3  7  1  0  0  0
  4  8  1  0  0  0
  5  9  1  0  0  0
  6 10  1  0  0  0
  8 17  1  0  0  0
  9 20  1  0  0  0
 10 16  1  0  0  0
 11 14  1  0  0  0
 11 15  1  0  0  0
 12 13  1  0  0  0
 12 20  1  0  0  0
 13  7  1  0  0  0
 13 16  1  0  0  0
 17 18  1  0  0  0
  1  3  2  0  0  0
  2  5  2  0  0  0
  4  6  2  0  0  0
  7  9  2  0  0  0
  8 11  2  0  0  0
 10 14  2  0  0  0
 17 19  2  0  0  0
M  CHG  2  17   1  18  -1
M  END
> <rmsd>
0.508913815

$$$$
ZINC84579218


 20 22  0  0  0  0  0  0  0  0999 V2000
   -3.2935   -2.0968   -0.8924 C   0  0  0  0  0
   -4.3390   -2.0887    0.0462 C   0  0  0  0  0
   -2.5335   -0.9469   -1.1224 C   0  0  0  0  0
   -4.6406   -0.9298    0.7639 C   0  0  0  0  0
    2.5169    0.8325   -0.1254 C   0  0  0  0  0
   -2.8457    0.1969   -0.4092 C   0  0  0  0  0
    2.6015    0.4605   -1.4516 C   0  0  0  0  0
   -3.8847    0.1983    0.5109 C   0  0  0  0  0
    1.4117    0.4662   -2.1504 C   0  0  0  0  0
    0.2734    1.1508   -0.3058 C   0  0  0  0  0
   -3.2524    2.3221    0.3522 C   0  0  0  0  0
   -2.1874    1.5244   -0.4102 C   0  0  0  0  0
    1.3650    1.1851    0.4821 N   0  0  0  0  0
    0.2247    0.8069   -1.6069 N   0  0  0  0  0
    1.4278    0.0935   -3.5176 N   0  0  0  0  0
   -0.9287    1.5052    0.2864 N   0  0  0  0  0
    3.8479    0.1016   -2.0256 N   0  0  0  0  0
    4.2124   -1.0994   -1.9896 O   0  0  0  0  0
    4.5547    0.9939   -2.5553 O   0  0  0  0  0
   -4.0549    1.4058    1.1397 O   0  0  0  0  0
  1  2  1  0  0  0
  3  6  1  0  0  0
  4  8  1  0  0  0
  5  7  1  0  0  0
  7 17  1  0  0  0
  8 20  1  0  0  0
  9 14  1  0  0  0
  9 15  1  0  0  0
 10 13  1  0  0  0
 10 16  1  0  0  0
 11 12  1  0  0  0
 11 20  1  0  0  0
 12  6  1  0  0  0
 12 16  1  0  0  0
 17 18  1  0  0  0
  1  3  2  0  0  0
  2  4  2  0  0  0
  5 13  2  0  0  0
  6  8  2  0  0  0
  7  9  2  0  0  0
 10 14  2  0  0  0
 17 19  2  0  0  0
M  CHG  2  17   1  18  -1
M  END
> <rmsd>
0.534869373

$$$$
ZINC00261097


 19 20  0  0  0  0  0  0  0  0999 V2000
   -3.1466   -3.1559   -0.5306 C   0  0  0  0  0
   -3.6165   -2.5271    0.6224 C   0  0  0  0  0
   -2.5417   -2.4042   -1.5378 C   0  0  0  0  0
    1.6943    2.6021   -1.3794 C   0  0  0  0  0
    0.5425    2.6349   -0.5933 C   0  0  0  0  0
    2.3128    1.3837   -1.6600 C   0  0  0  0  0
   -3.4816   -1.1464    0.7681 C   0  0  0  0  0
   -2.4067   -1.0234   -1.3921 C   0  0  0  0  0
    0.6275    0.2309   -0.3685 C   0  0  0  0  0
    0.0091    1.4493   -0.0878 C   0  0  0  0  0
    1.7794    0.1982   -1.1546 C   0  0  0  0  0
   -2.8767   -0.3946   -0.2392 C   0  0  0  0  0
   -1.1696    1.4832    0.7170 N   0  0  0  0  0
    2.4087   -1.0418   -1.4415 N   0  0  0  0  0
    3.4435   -1.0487   -2.1515 O   0  0  0  0  0
    1.9135   -2.0972   -0.9770 O   0  0  0  0  0
   -3.7358    1.7848    0.8735 O   0  0  0  0  0
   -2.6439    1.9388   -1.3811 O   0  0  0  0  0
   -2.7051    1.3572   -0.0539 S   0  0  0  0  0
  1  2  1  0  0  0
  3  8  1  0  0  0
  4  6  1  0  0  0
  5 10  1  0  0  0
  7 12  1  0  0  0
  9 11  1  0  0  0
 10 13  1  0  0  0
 11 14  1  0  0  0
 14 15  1  0  0  0
 19 12  1  0  0  0
 19 13  1  0  0  0
  1  3  2  0  0  0
  2  7  2  0  0  0
  4  5  2  0  0  0
  6 11  2  0  0  0
  8 12  2  0  0  0
  9 10  2  0  0  0
 14 16  2  0  0  0
 19 17  2  0  0  0
 19 18  2  0  0  0
M  CHG  2  14   1  15  -1
M  END
> <rmsd>
0.550827861

$$$$
ZINC91504369


 21 23  0  0  0  0  0  0  0  0999 V2000
   -3.0818   -2.9681   -0.7931 C   0  0  0  0  0
   -2.5527   -2.4669    0.4063 C   0  0  0  0  0
   -3.6953   -2.1145   -1.7122 C   0  0  0  0  0
   -2.6283   -1.1045    0.7035 C   0  0  0  0  0
    0.2349    0.4101   -1.1161 C   0  0  0  0  0
    1.1834    1.1146    0.9913 C   0  0  0  0  0
    1.4546   -0.1649   -1.4728 C   0  0  0  0  0
    2.4031    0.5396    0.6346 C   0  0  0  0  0
   -3.7773   -0.7667   -1.4044 C   0  0  0  0  0
   -3.2456   -0.2632   -0.2094 C   0  0  0  0  0
    0.0992    1.0498    0.1160 C   0  0  0  0  0
    2.5387   -0.1002   -0.5974 C   0  0  0  0  0
   -4.3505    0.3314   -2.2437 C   0  0  0  0  0
   -4.5255    1.4423   -1.1979 C   0  0  0  0  0
   -3.4277    1.2301   -0.1310 C   0  0  0  0  0
   -2.1427    1.9840   -0.4557 C   0  0  0  0  0
   -1.1209    1.6264    0.4723 N   0  0  0  0  0
    3.7793   -0.6895   -0.9578 N   0  0  0  0  0
    3.8796   -1.2641   -2.0687 O   0  0  0  0  0
    4.7415   -0.6195   -0.1555 O   0  0  0  0  0
   -3.9093    1.6640    1.1336 O   0  0  0  0  0
  1  2  1  0  0  0
  3  9  1  0  0  0
  4 10  1  0  0  0
  5 11  1  0  0  0
  6  8  1  0  0  0
  7 12  1  0  0  0
 11 17  1  0  0  0
 12 18  1  0  0  0
 13  9  1  0  0  0
 13 14  1  0  0  0
 14 15  1  0  0  0
 15 10  1  0  0  0
 15 16  1  0  0  0
 15 21  1  0  0  0
 16 17  1  0  0  0
 18 19  1  0  0  0
  1  3  2  0  0  0
  2  4  2  0  0  0
  5  7  2  0  0  0
  6 11  2  0  0  0
  8 12  2  0  0  0
  9 10  2  0  0  0
 18 20  2  0  0  0
M  CHG  2  18   1  19  -1
M  END
> <rmsd>
0.490077525

$$$$
ZINC00249005


 18 19  0  0  0  0  0  0  0  0999 V2000
    1.7290    2.6148   -1.2948 C   0  0  0  0  0
   -3.0383   -2.5699   -1.1251 C   0  0  0  0  0
    0.5654    2.6275   -0.5260 C   0  0  0  0  0
    2.3457    1.4031   -1.6069 C   0  0  0  0  0
   -2.8390   -1.1960   -1.4459 C   0  0  0  0  0
    0.6347    0.2168   -0.3810 C   0  0  0  0  0
   -3.2181   -2.7649    0.2267 C   0  0  0  0  0
    0.0181    1.4285   -0.0691 C   0  0  0  0  0
    1.7985    0.2041   -1.1500 C   0  0  0  0  0
   -2.8742   -0.3931   -0.3270 C   0  0  0  0  0
   -1.1728    1.4419    0.7181 N   0  0  0  0  0
    2.4260   -1.0290   -1.4688 N   0  0  0  0  0
    3.4716   -1.0178   -2.1625 O   0  0  0  0  0
    1.9183   -2.0966   -1.0478 O   0  0  0  0  0
   -3.7397    1.7523    0.8451 O   0  0  0  0  0
   -2.6119    1.9760   -1.3860 O   0  0  0  0  0
   -3.1464   -1.2953    1.1029 S   0  0  0  0  0
   -2.6967    1.3504   -0.0802 S   0  0  0  0  0
  1  3  1  0  0  0
  2  5  1  0  0  0
  4  9  1  0  0  0
  6  8  1  0  0  0
  7 17  1  0  0  0
  8 11  1  0  0  0
  9 12  1  0  0  0
 10 17  1  0  0  0
 12 13  1  0  0  0
 18 10  1  0  0  0
 18 11  1  0  0  0
  1  4  2  0  0  0
  2  7  2  0  0  0
  3  8  2  0  0  0
  5 10  2  0  0  0
  6  9  2  0  0  0
 12 14  2  0  0  0
 18 15  2  0  0  0
 18 16  2  0  0  0
M  CHG  2  12   1  13  -1
M  END
> <rmsd>
0.522810876

$$$$
ZINC80640187


 21 22  0  0  0  0  0  0  0  0999 V2000
   -3.0802   -2.9634   -0.4806 C   0  0  0  0  0
   -2.8217   -2.1760   -1.6024 C   0  0  0  0  0
   -3.4661   -2.3641    0.7184 C   0  0  0  0  0
   -2.9489   -0.7890   -1.5254 C   0  0  0  0  0
   -3.5932   -0.9771    0.7955 C   0  0  0  0  0
    0.5026    0.9046   -1.1430 C   0  0  0  0  0
    1.6550    0.2107   -1.5114 C   0  0  0  0  0
    1.8985   -0.5886    0.7555 C   0  0  0  0  0
   -3.3346   -0.1896   -0.3264 C   0  0  0  0  0
    0.7461    0.1055    1.1240 C   0  0  0  0  0
    0.0480    0.8521    0.1747 C   0  0  0  0  0
    2.3530   -0.5359   -0.5622 C   0  0  0  0  0
    0.2816    0.0320    2.5422 C   0  0  0  0  0
   -4.5262    1.8497   -1.2383 C   0  0  0  0  0
   -2.0858    1.9810   -0.4562 C   0  0  0  0  0
   -3.4742    1.3339   -0.2409 C   0  0  0  0  0
   -1.0902    1.5430    0.5206 N   0  0  0  0  0
    3.5262   -1.2423   -0.9378 N   0  0  0  0  0
    3.9175   -1.1814   -2.1285 O   0  0  0  0  0
    4.1395   -1.9079   -0.0689 O   0  0  0  0  0
   -3.9373    1.6937    1.0681 O   0  0  0  0  0
  1  2  1  0  0  0
  3  5  1  0  0  0
  4  9  1  0  0  0
  6 11  1  0  0  0
  7 12  1  0  0  0
  8 10  1  0  0  0
 11 17  1  0  0  0
 12 18  1  0  0  0
 13 10  1  0  0  0
 14 16  1  0  0  0
 15 16  1  0  0  0
 15 17  1  0  0  0
 16  9  1  0  0  0
 16 21  1  0  0  0
 18 19  1  0  0  0
  1  3  2  0  0  0
  2  4  2  0  0  0
  5  9  2  0  0  0
  6  7  2  0  0  0
  8 12  2  0  0  0
 10 11  2  0  0  0
 18 20  2  0  0  0
M  CHG  2  18   1  19  -1
M  END
> <rmsd>
0.435650378

$$$$
ZINC94617426


 21 22  0  0  0  0  0  0  0  0999 V2000
    3.0567    2.7381   -0.1665 C   0  0  0  0  0
    2.0742    3.5184    0.4432 C   0  0  0  0  0
   -4.7157   -0.6775    0.8269 C   0  0  0  0  0
   -4.6953   -1.9754    0.3165 C   0  0  0  0  0
    1.4507    0.9605   -0.4793 C   0  0  0  0  0
   -2.6980   -1.4510   -0.9376 C   0  0  0  0  0
    2.7449    1.4592   -0.6279 C   0  0  0  0  0
    0.7801    3.0196    0.5917 C   0  0  0  0  0
   -2.7184   -0.1530   -0.4274 C   0  0  0  0  0
    0.4683    1.7406    0.1304 C   0  0  0  0  0
   -3.7272    0.2338    0.4548 C   0  0  0  0  0
   -3.6865   -2.3623   -0.5656 C   0  0  0  0  0
    3.7818    0.6364   -1.2712 C   0  0  0  0  0
   -0.2523    3.8770    1.2485 C   0  0  0  0  0
   -2.1991    2.0531   -1.5509 C   0  0  0  0  0
   -1.6378    0.8221   -0.8423 C   0  0  0  0  0
   -0.8366    1.2197    0.2725 N   0  0  0  0  0
    3.4685   -0.5411   -1.6883 O   0  0  0  0  0
    4.9687    1.1208   -1.3958 O   0  0  0  0  0
   -3.7633    1.4982    0.9614 O   0  0  0  0  0
   -3.6666   -3.6086   -1.0560 F   0  0  0  0  0
  1  7  1  0  0  0
  2  8  1  0  0  0
  3 11  1  0  0  0
  4 12  1  0  0  0
  5 10  1  0  0  0
  6  9  1  0  0  0
  7 13  1  0  0  0
 10 17  1  0  0  0
 11 20  1  0  0  0
 12 21  1  0  0  0
 13 18  1  0  0  0
 14  8  1  0  0  0
 15 16  1  0  0  0
 16  9  1  0  0  0
 16 17  1  0  0  0
  1  2  2  0  0  0
  3  4  2  0  0  0
  5  7  2  0  0  0
  6 12  2  0  0  0
  8 10  2  0  0  0
  9 11  2  0  0  0
 13 19  2  0  0  0
M  CHG  1  18  -1
M  END
> <rmsd>
0.421625555

$$$$
ZINC94617434


 21 22  0  0  0  0  0  0  0  0999 V2000
    2.9372    2.6286    0.3288 C   0  0  0  0  0
   -4.7883   -0.5340    0.8290 C   0  0  0  0  0
    1.9187    3.3724    0.9246 C   0  0  0  0  0
   -5.0070   -1.8009    0.2881 C   0  0  0  0  0
    1.3222    0.9687   -0.3598 C   0  0  0  0  0
   -2.9771   -1.5986   -1.0064 C   0  0  0  0  0
    2.6389    1.4268   -0.3135 C   0  0  0  0  0
   -2.7585   -0.3316   -0.4655 C   0  0  0  0  0
    0.3036    1.7126    0.2361 C   0  0  0  0  0
   -3.6641    0.2008    0.4521 C   0  0  0  0  0
   -4.1014   -2.3332   -0.6295 C   0  0  0  0  0
    0.6019    2.9144    0.8783 C   0  0  0  0  0
    3.7138    0.6423   -0.9420 C   0  0  0  0  0
   -1.7881    1.3251   -2.1127 C   0  0  0  0  0
   -1.5332    0.4511   -0.8863 C   0  0  0  0  0
   -1.0271    1.2477    0.1883 N   0  0  0  0  0
    3.4123   -0.4640   -1.5284 O   0  0  0  0  0
    4.9211    1.0877   -0.8848 O   0  0  0  0  0
   -3.4668    1.4375    0.9889 O   0  0  0  0  0
   -4.3110   -3.5500   -1.1494 F   0  0  0  0  0
   -0.3689    3.6367    1.4554 F   0  0  0  0  0
  1  7  1  0  0  0
  2 10  1  0  0  0
  3 12  1  0  0  0
  4 11  1  0  0  0
  5  9  1  0  0  0
  6  8  1  0  0  0
  7 13  1  0  0  0
  9 16  1  0  0  0
 10 19  1  0  0  0
 11 20  1  0  0  0
 12 21  1  0  0  0
 13 17  1  0  0  0
 14 15  1  0  0  0
 15  8  1  0  0  0
 15 16  1  0  0  0
  1  3  2  0  0  0
  2  4  2  0  0  0
  5  7  2  0  0  0
  6 11  2  0  0  0
  8 10  2  0  0  0
  9 12  2  0  0  0
 13 18  2  0  0  0
M  CHG  1  17  -1
M  END
> <rmsd>
0.525607586

$$$$
ZINC00472657


 20 21  0  0  0  0  0  0  0  0999 V2000
    1.6662    2.5881   -1.4418 C   0  0  0  0  0
   -3.6001   -2.5314    0.6096 C   0  0  0  0  0
   -2.5260   -2.3962   -1.5502 C   0  0  0  0  0
    0.5222    2.6292   -0.6450 C   0  0  0  0  0
    2.2922    1.3689   -1.7010 C   0  0  0  0  0
   -3.4710   -1.1507    0.7603 C   0  0  0  0  0
   -2.3971   -1.0155   -1.3997 C   0  0  0  0  0
    0.6302    0.2317   -0.3662 C   0  0  0  0  0
   -3.1275   -3.1542   -0.5455 C   0  0  0  0  0
    0.0043    1.4510   -0.1070 C   0  0  0  0  0
    1.7742    0.1906   -1.1632 C   0  0  0  0  0
   -2.8695   -0.3927   -0.2444 C   0  0  0  0  0
   -3.2634   -4.6306   -0.7060 C   0  0  0  0  0
   -1.1751    1.4938    0.7149 N   0  0  0  0  0
    2.4114   -1.0502   -1.4283 N   0  0  0  0  0
    3.4388   -1.0647   -2.1486 O   0  0  0  0  0
    1.9300   -2.0988   -0.9348 O   0  0  0  0  0
   -3.7336    1.7788    0.8797 O   0  0  0  0  0
   -2.6529    1.9455   -1.3794 O   0  0  0  0  0
   -2.7074    1.3354   -0.0565 S   0  0  0  0  0
  1  5  1  0  0  0
  2  9  1  0  0  0
  3  7  1  0  0  0
  4 10  1  0  0  0
  6 12  1  0  0  0
  8 11  1  0  0  0
 10 14  1  0  0  0
 11 15  1  0  0  0
 13  9  1  0  0  0
 15 16  1  0  0  0
 20 12  1  0  0  0
 20 14  1  0  0  0
  1  4  2  0  0  0
  2  6  2  0  0  0
  3  9  2  0  0  0
  5 11  2  0  0  0
  7 12  2  0  0  0
  8 10  2  0  0  0
 15 17  2  0  0  0
 20 18  2  0  0  0
 20 19  2  0  0  0
M  CHG  2  15   1  16  -1
M  END
> <rmsd>
0.560070992

$$$$
ZINC01165396


 20 21  0  0  0  0  0  0  0  0999 V2000
   -3.6008   -2.5302    0.6098 C   0  0  0  0  0
    1.6653    2.5893   -1.4425 C   0  0  0  0  0
   -3.1287   -3.1535   -0.5451 C   0  0  0  0  0
    0.5213    2.6302   -0.6455 C   0  0  0  0  0
    2.2916    1.3702   -1.7016 C   0  0  0  0  0
   -3.4714   -1.1495    0.7598 C   0  0  0  0  0
   -2.3976   -1.0155   -1.4003 C   0  0  0  0  0
    0.6299    0.2328   -0.3666 C   0  0  0  0  0
   -2.5270   -2.3962   -1.5502 C   0  0  0  0  0
    0.0036    1.4520   -0.1075 C   0  0  0  0  0
    1.7739    0.1919   -1.1636 C   0  0  0  0  0
   -2.8698   -0.3921   -0.2453 C   0  0  0  0  0
   -2.0210   -3.0638   -2.7843 C   0  0  0  0  0
   -1.1757    1.4946    0.7146 N   0  0  0  0  0
    2.4113   -1.0488   -1.4286 N   0  0  0  0  0
    3.4387   -1.0632   -2.1490 O   0  0  0  0  0
    1.9301   -2.0974   -0.9350 O   0  0  0  0  0
   -3.7343    1.7791    0.8792 O   0  0  0  0  0
   -2.6534    1.9465   -1.3799 O   0  0  0  0  0
   -2.7080    1.3358   -0.0571 S   0  0  0  0  0
  1  6  1  0  0  0
  2  5  1  0  0  0
  3  9  1  0  0  0
  4 10  1  0  0  0
  7 12  1  0  0  0
  8 11  1  0  0  0
 10 14  1  0  0  0
 11 15  1  0  0  0
 13  9  1  0  0  0
 15 16  1  0  0  0
 20 12  1  0  0  0
 20 14  1  0  0  0
  1  3  2  0  0  0
  2  4  2  0  0  0
  5 11  2  0  0  0
  6 12  2  0  0  0
  7  9  2  0  0  0
  8 10  2  0  0  0
 15 17  2  0  0  0
 20 18  2  0  0  0
 20 19  2  0  0  0
M  CHG  2  15   1  16  -1
M  END
> <rmsd>
0.559722543

$$$$
ZINC01165396


 20 21  0  0  0  0  0  0  0  0999 V2000
   -2.5268   -2.3957   -1.5504 C   0  0  0  0  0
    1.6649    2.5895   -1.4429 C   0  0  0  0  0
   -3.1282   -3.1535   -0.5455 C   0  0  0  0  0
    0.5210    2.6304   -0.6458 C   0  0  0  0  0
    2.2913    1.3704   -1.7018 C   0  0  0  0  0
   -2.3976   -1.0150   -1.4000 C   0  0  0  0  0
   -3.4713   -1.1499    0.7601 C   0  0  0  0  0
    0.6298    0.2331   -0.3664 C   0  0  0  0  0
   -3.6005   -2.5306    0.6096 C   0  0  0  0  0
    0.0034    1.4523   -0.1076 C   0  0  0  0  0
    1.7737    0.1921   -1.1636 C   0  0  0  0  0
   -2.8699   -0.3920   -0.2447 C   0  0  0  0  0
   -4.2448   -3.3414    1.6829 C   0  0  0  0  0
   -1.1758    1.4949    0.7146 N   0  0  0  0  0
    2.4112   -1.0486   -1.4284 N   0  0  0  0  0
    3.4385   -1.0630   -2.1488 O   0  0  0  0  0
    1.9302   -2.0971   -0.9346 O   0  0  0  0  0
   -3.7344    1.7793    0.8794 O   0  0  0  0  0
   -2.6538    1.9463   -1.3798 O   0  0  0  0  0
   -2.7081    1.3358   -0.0570 S   0  0  0  0  0
  1  6  1  0  0  0
  2  5  1  0  0  0
  3  9  1  0  0  0
  4 10  1  0  0  0
  7 12  1  0  0  0
  8 11  1  0  0  0
 10 14  1  0  0  0
 11 15  1  0  0  0
 13  9  1  0  0  0
 15 16  1  0  0  0
 20 12  1  0  0  0
 20 14  1  0  0  0
  1  3  2  0  0  0
  2  4  2  0  0  0
  5 11  2  0  0  0
  6 12  2  0  0  0
  7  9  2  0  0  0
  8 10  2  0  0  0
 15 17  2  0  0  0
 20 18  2  0  0  0
 20 19  2  0  0  0
M  CHG  2  15   1  16  -1
M  END
> <rmsd>
0.559923172

$$$$
ZINC20061363


 20 21  0  0  0  0  0  0  0  0999 V2000
    1.6656    2.5889   -1.4427 C   0  0  0  0  0
    0.5216    2.6298   -0.6457 C   0  0  0  0  0
   -3.6003   -2.5311    0.6095 C   0  0  0  0  0
   -2.5264   -2.3965   -1.5506 C   0  0  0  0  0
    2.2920    1.3697   -1.7017 C   0  0  0  0  0
   -3.4711   -1.1504    0.7598 C   0  0  0  0  0
   -2.3973   -1.0158   -1.4004 C   0  0  0  0  0
    0.6301    0.2324   -0.3668 C   0  0  0  0  0
   -3.1279   -3.1542   -0.5457 C   0  0  0  0  0
    0.0038    1.4516   -0.1078 C   0  0  0  0  0
    1.7741    0.1915   -1.1638 C   0  0  0  0  0
   -2.8696   -0.3927   -0.2451 C   0  0  0  0  0
   -3.2585   -4.5502   -0.6981 N   0  0  0  0  0
   -1.1755    1.4943    0.7141 N   0  0  0  0  0
    2.4115   -1.0493   -1.4287 N   0  0  0  0  0
    3.4390   -1.0636   -2.1490 O   0  0  0  0  0
    1.9303   -2.0979   -0.9352 O   0  0  0  0  0
   -3.7341    1.7787    0.8788 O   0  0  0  0  0
   -2.6534    1.9456   -1.3803 O   0  0  0  0  0
   -2.7078    1.3355   -0.0574 S   0  0  0  0  0
  1  2  1  0  0  0
  3  9  1  0  0  0
  4  7  1  0  0  0
  5 11  1  0  0  0
  6 12  1  0  0  0
  8 10  1  0  0  0
  9 13  1  0  0  0
 10 14  1  0  0  0
 11 15  1  0  0  0
 15 16  1  0  0  0
 20 12  1  0  0  0
 20 14  1  0  0  0
  1  5  2  0  0  0
  2 10  2  0  0  0
  3  6  2  0  0  0
  4  9  2  0  0  0
  7 12  2  0  0  0
  8 11  2  0  0  0
 15 17  2  0  0  0
 20 18  2  0  0  0
 20 19  2  0  0  0
M  CHG  2  15   1  16  -1
M  END
> <rmsd>
0.560027361

$$$$
ZINC16101435


 20 21  0  0  0  0  0  0  0  0999 V2000
    0.8669    2.4979   -2.5706 C   0  0  0  0  0
    1.8430    1.5025   -2.6126 C   0  0  0  0  0
   -0.1133    2.4723   -1.5783 C   0  0  0  0  0
    0.8587    0.4555   -0.6704 C   0  0  0  0  0
    1.8388    0.4811   -1.6625 C   0  0  0  0  0
   -0.1174    1.4510   -0.6284 C   0  0  0  0  0
   -2.9730   -0.4220   -0.3312 C   0  0  0  0  0
   -3.3648   -1.3923    0.6104 C   0  0  0  0  0
   -2.7763   -1.1296   -1.4919 C   0  0  0  0  0
    2.8692   -0.5693   -1.7077 C   0  0  0  0  0
   -3.7057   -1.1903    2.0299 C   0  0  0  0  0
   -2.3611   -0.7185   -2.8437 C   0  0  0  0  0
   -3.4149   -2.6225    0.0929 N   0  0  0  0  0
   -3.0519   -2.4301   -1.1868 N   0  0  0  0  0
   -1.1210    1.4244    0.3866 N   0  0  0  0  0
    2.8435   -1.5008   -0.8189 O   0  0  0  0  0
    3.7623   -0.5219   -2.6343 O   0  0  0  0  0
   -3.6112    1.6813    1.0454 O   0  0  0  0  0
   -2.9700    1.9733   -1.3635 O   0  0  0  0  0
   -2.7749    1.3193   -0.0838 S   0  0  0  0  0
  1  2  1  0  0  0
  3  6  1  0  0  0
  4  5  1  0  0  0
  5 10  1  0  0  0
  6 15  1  0  0  0
  7  8  1  0  0  0
  9 14  1  0  0  0
 10 16  1  0  0  0
 11  8  1  0  0  0
 12  9  1  0  0  0
 14 13  1  0  0  0
 20  7  1  0  0  0
 20 15  1  0  0  0
  1  3  2  0  0  0
  2  5  2  0  0  0
  4  6  2  0  0  0
  7  9  2  0  0  0
  8 13  2  0  0  0
 10 17  2  0  0  0
 20 18  2  0  0  0
 20 19  2  0  0  0
M  CHG  1  16  -1
M  END
> <rmsd>
0.507041872

$$$$
ZINC94554478


 20 21  0  0  0  0  0  0  0  0999 V2000
   -4.8890   -0.7060    0.7254 C   0  0  0  0  0
   -4.5626   -1.9582    0.2048 C   0  0  0  0  0
    2.2584    2.1632   -3.0675 C   0  0  0  0  0
    1.2654    2.7637   -2.2572 C   0  0  0  0  0
   -2.4801   -1.0663   -0.6350 C   0  0  0  0  0
   -2.8066    0.1859   -0.1145 C   0  0  0  0  0
   -4.0110    0.3661    0.5656 C   0  0  0  0  0
   -3.3582   -2.1384   -0.4754 C   0  0  0  0  0
    2.7693    1.1179   -2.3338 C   0  0  0  0  0
    1.2402    2.0424   -1.0863 C   0  0  0  0  0
   -1.8774    1.2928   -0.2943 C   0  0  0  0  0
    3.8773    0.1722   -2.8025 C   0  0  0  0  0
    0.4283    2.1550    0.1717 C   0  0  0  0  0
   -0.5966    1.1386    0.2467 N   0  0  0  0  0
    4.2219   -0.7327   -1.9949 O   0  0  0  0  0
   -2.2352    2.3252   -0.8863 O   0  0  0  0  0
    4.3460    0.3835   -3.9537 O   0  0  0  0  0
    2.1539    1.0373   -1.1250 O   0  0  0  0  0
   -4.3489    1.5824    1.0795 O   0  0  0  0  0
   -2.9545   -3.6840   -1.1158 Cl  0  0  0  0  0
  1  2  1  0  0  0
  3  4  1  0  0  0
  5  8  1  0  0  0
  6  7  1  0  0  0
  6 11  1  0  0  0
  7 19  1  0  0  0
  8 20  1  0  0  0
  9 12  1  0  0  0
  9 18  1  0  0  0
 10 18  1  0  0  0
 11 14  1  0  0  0
 12 15  1  0  0  0
 13 10  1  0  0  0
 13 14  1  0  0  0
  1  7  2  0  0  0
  2  8  2  0  0  0
  3  9  2  0  0  0
  4 10  2  0  0  0
  5  6  2  0  0  0
 11 16  2  0  0  0
 12 17  2  0  0  0
M  CHG  1  15  -1
M  END
> <rmsd>
0.613819182

$$$$
ZINC20436303


 20 21  0  0  0  0  0  0  0  0999 V2000
   -2.3587   -3.6650   -2.6940 C   0  0  0  0  0
   -1.4194   -2.6640   -2.9231 C   0  0  0  0  0
   -3.3725   -3.4701   -1.7554 C   0  0  0  0  0
   -1.4901   -1.4643   -2.2146 C   0  0  0  0  0
   -4.4725   -2.0555   -0.0846 C   0  0  0  0  0
   -4.5432   -0.8558    0.6240 C   0  0  0  0  0
   -3.4589   -2.2688   -1.0331 C   0  0  0  0  0
   -2.5036   -1.2509   -1.2660 C   0  0  0  0  0
   -2.5900   -0.0496   -0.5436 C   0  0  0  0  0
   -3.6038    0.1452    0.3949 C   0  0  0  0  0
   -1.6291    1.0345   -0.7446 C   0  0  0  0  0
    0.1173    2.6171   -0.0204 C   0  0  0  0  0
    1.5056    2.0899    0.2811 C   0  0  0  0  0
   -0.8546    1.5261    0.1658 N   0  0  0  0  0
    3.1758   -0.8134   -1.4946 O   0  0  0  0  0
    3.2511   -0.2731    0.8979 O   0  0  0  0  0
    4.2254    1.2774   -0.7355 O   0  0  0  0  0
   -3.6962    1.3079    1.1013 O   0  0  0  0  0
    1.7901    0.9983   -0.5840 O   0  0  0  0  0
    3.2371    0.2320   -0.4742 S   0  0  0  0  0
  1  2  1  0  0  0
  3  7  1  0  0  0
  4  8  1  0  0  0
  5  6  1  0  0  0
  7  8  1  0  0  0
  9 10  1  0  0  0
  9 11  1  0  0  0
 10 18  1  0  0  0
 12 13  1  0  0  0
 12 14  1  0  0  0
 13 19  1  0  0  0
 20 15  1  0  0  0
 20 19  1  0  0  0
  1  3  2  0  0  0
  2  4  2  0  0  0
  5  7  2  0  0  0
  6 10  2  0  0  0
  8  9  2  0  0  0
 11 14  2  0  0  0
 20 16  2  0  0  0
 20 17  2  0  0  0
M  CHG  2  14   1  15  -1
M  END
> <rmsd>
0.502765775

$$$$
ZINC59379184


 22 24  0  0  0  0  0  0  0  0999 V2000
   -2.5741   -3.2925   -2.6655 C   0  0  0  0  0
   -2.0490   -2.1098   -3.1778 C   0  0  0  0  0
   -3.3053   -3.2751   -1.4774 C   0  0  0  0  0
   -2.2531   -0.9053   -2.5042 C   0  0  0  0  0
   -4.2540   -2.0358    0.4112 C   0  0  0  0  0
   -4.4580   -0.8312    1.0849 C   0  0  0  0  0
   -3.5205   -2.0718   -0.7859 C   0  0  0  0  0
   -2.9865   -0.8692   -1.3070 C   0  0  0  0  0
   -3.2017    0.3342   -0.6155 C   0  0  0  0  0
   -3.9330    0.3514    0.5725 C   0  0  0  0  0
    2.2216    0.0656   -1.1531 C   0  0  0  0  0
    0.4194    0.6946   -0.3084 C   0  0  0  0  0
   -2.6722    1.6051   -1.1089 C   0  0  0  0  0
    3.3594   -0.0919   -2.1668 C   0  0  0  0  0
    1.1219    0.8338   -1.4086 N   0  0  0  0  0
    2.2436   -0.5402    0.0359 N   0  0  0  0  0
   -1.4976    2.0459   -0.7720 N   0  0  0  0  0
    1.0799   -0.1215    0.5562 N   0  0  0  0  0
   -0.8224    1.2328    0.0634 N   0  0  0  0  0
    4.3221   -0.8264   -1.8178 O   0  0  0  0  0
    3.2284    0.5277   -3.2561 O   0  0  0  0  0
   -4.1474    1.5145    1.2513 O   0  0  0  0  0
  1  2  1  0  0  0
  3  7  1  0  0  0
  4  8  1  0  0  0
  5  6  1  0  0  0
  7  8  1  0  0  0
  9 10  1  0  0  0
  9 13  1  0  0  0
 10 22  1  0  0  0
 11 14  1  0  0  0
 11 15  1  0  0  0
 12 18  1  0  0  0
 12 19  1  0  0  0
 14 20  1  0  0  0
 18 16  1  0  0  0
 19 17  1  0  0  0
  1  3  2  0  0  0
  2  4  2  0  0  0
  5  7  2  0  0  0
  6 10  2  0  0  0
  8  9  2  0  0  0
 11 16  2  0  0  0
 12 15  2  0  0  0
 13 17  2  0  0  0
 14 21  2  0  0  0
M  CHG  1  20  -1
M  END
> <rmsd>
0.626001716

$$$$
ZINC59379184


 22 24  0  0  0  0  0  0  0  0999 V2000
   -2.3825   -3.6322   -2.2175 C   0  0  0  0  0
   -1.7854   -2.5186   -2.8007 C   0  0  0  0  0
   -3.2002   -3.4800   -1.0973 C   0  0  0  0  0
   -2.0035   -1.2486   -2.2661 C   0  0  0  0  0
   -4.2509   -2.0374    0.5813 C   0  0  0  0  0
   -4.4690   -0.7673    1.1160 C   0  0  0  0  0
   -3.4308   -2.2091   -0.5458 C   0  0  0  0  0
   -2.8235   -1.0768   -1.1389 C   0  0  0  0  0
   -3.0541    0.1941   -0.5875 C   0  0  0  0  0
   -3.8718    0.3462    0.5327 C   0  0  0  0  0
    2.3838   -0.2474   -0.6726 C   0  0  0  0  0
    0.5427    0.5027   -0.0363 C   0  0  0  0  0
   -2.4513    1.3973   -1.1602 C   0  0  0  0  0
    3.5895   -0.5307   -1.5743 C   0  0  0  0  0
    1.3299    0.5157   -1.0868 N   0  0  0  0  0
    2.2982   -0.7317    0.5682 N   0  0  0  0  0
   -1.2927    1.8433   -0.7777 N   0  0  0  0  0
    1.1117   -0.2374    0.9528 N   0  0  0  0  0
   -0.7069    1.1029    0.1833 N   0  0  0  0  0
    4.5008   -1.2478   -1.0812 O   0  0  0  0  0
    3.5594   -0.0202   -2.7259 O   0  0  0  0  0
   -4.1019    1.5758    1.0755 O   0  0  0  0  0
  1  2  1  0  0  0
  3  7  1  0  0  0
  4  8  1  0  0  0
  5  6  1  0  0  0
  7  8  1  0  0  0
  9 10  1  0  0  0
  9 13  1  0  0  0
 10 22  1  0  0  0
 11 14  1  0  0  0
 11 15  1  0  0  0
 12 18  1  0  0  0
 12 19  1  0  0  0
 14 20  1  0  0  0
 18 16  1  0  0  0
 19 17  1  0  0  0
  1  3  2  0  0  0
  2  4  2  0  0  0
  5  7  2  0  0  0
  6 10  2  0  0  0
  8  9  2  0  0  0
 11 16  2  0  0  0
 12 15  2  0  0  0
 13 17  2  0  0  0
 14 21  2  0  0  0
M  CHG  1  20  -1
M  END
> <rmsd>
0.522526443

$$$$
ZINC00102476


 20 21  0  0  0  0  0  0  0  0999 V2000
    1.6941    2.6017   -1.3786 C   0  0  0  0  0
    0.5422    2.6345   -0.5927 C   0  0  0  0  0
    2.3124    1.3833   -1.6595 C   0  0  0  0  0
   -3.6167   -2.5274    0.6217 C   0  0  0  0  0
   -2.5410   -2.4040   -1.5380 C   0  0  0  0  0
   -3.4824   -1.1468    0.7676 C   0  0  0  0  0
   -2.4066   -1.0233   -1.3921 C   0  0  0  0  0
    0.6269    0.2304   -0.3683 C   0  0  0  0  0
    0.0086    1.4489   -0.0874 C   0  0  0  0  0
    1.7788    0.1977   -1.1543 C   0  0  0  0  0
   -3.1460   -3.1561   -0.5311 C   0  0  0  0  0
   -2.8773   -0.3947   -0.2394 C   0  0  0  0  0
   -1.1701    1.4827    0.7173 N   0  0  0  0  0
    2.4081   -1.0423   -1.4414 N   0  0  0  0  0
    3.4429   -1.0491   -2.1513 O   0  0  0  0  0
    1.9127   -2.0977   -0.9772 O   0  0  0  0  0
   -3.7363    1.7845    0.8737 O   0  0  0  0  0
   -2.6442    1.9389   -1.3808 O   0  0  0  0  0
   -3.2737   -4.4822   -0.6706 F   0  0  0  0  0
   -2.7056    1.3571   -0.0538 S   0  0  0  0  0
  1  2  1  0  0  0
  3 10  1  0  0  0
  4 11  1  0  0  0
  5  7  1  0  0  0
  6 12  1  0  0  0
  8  9  1  0  0  0
  9 13  1  0  0  0
 10 14  1  0  0  0
 11 19  1  0  0  0
 14 15  1  0  0  0
 20 12  1  0  0  0
 20 13  1  0  0  0
  1  3  2  0  0  0
  2  9  2  0  0  0
  4  6  2  0  0  0
  5 11  2  0  0  0
  7 12  2  0  0  0
  8 10  2  0  0  0
 14 16  2  0  0  0
 20 17  2  0  0  0
 20 18  2  0  0  0
M  CHG  2  14   1  15  -1
M  END
> <rmsd>
0.55090785

$$$$
ZINC03581244


 20 21  0  0  0  0  0  0  0  0999 V2000
   -3.1450   -3.1564   -0.5353 C   0  0  0  0  0
   -2.9413   -2.3503   -1.6553 C   0  0  0  0  0
    1.6922    2.6014   -1.3830 C   0  0  0  0  0
    0.5408    2.6347   -0.5964 C   0  0  0  0  0
    2.3109    1.3829   -1.6624 C   0  0  0  0  0
   -3.2148   -2.5824    0.7340 C   0  0  0  0  0
   -2.8073   -0.9700   -1.5058 C   0  0  0  0  0
    0.6269    0.2310   -0.3685 C   0  0  0  0  0
    0.0081    1.4495   -0.0891 C   0  0  0  0  0
    1.7783    0.1978   -1.1552 C   0  0  0  0  0
   -3.0807   -1.2020    0.8834 C   0  0  0  0  0
   -2.8770   -0.3957   -0.2365 C   0  0  0  0  0
   -1.1701    1.4840    0.7163 N   0  0  0  0  0
    2.4080   -1.0423   -1.4409 N   0  0  0  0  0
    3.4424   -1.0497   -2.1514 O   0  0  0  0  0
    1.9135   -2.0973   -0.9748 O   0  0  0  0  0
   -3.7364    1.7847    0.8738 O   0  0  0  0  0
   -2.6458    1.9363   -1.3815 O   0  0  0  0  0
   -3.1497   -0.6619    2.1082 F   0  0  0  0  0
   -2.7060    1.3564   -0.0536 S   0  0  0  0  0
  1  2  1  0  0  0
  3  5  1  0  0  0
  4  9  1  0  0  0
  6 11  1  0  0  0
  7 12  1  0  0  0
  8 10  1  0  0  0
  9 13  1  0  0  0
 10 14  1  0  0  0
 11 19  1  0  0  0
 14 15  1  0  0  0
 20 12  1  0  0  0
 20 13  1  0  0  0
  1  6  2  0  0  0
  2  7  2  0  0  0
  3  4  2  0  0  0
  5 10  2  0  0  0
  8  9  2  0  0  0
 11 12  2  0  0  0
 14 16  2  0  0  0
 20 17  2  0  0  0
 20 18  2  0  0  0
M  CHG  2  14   1  15  -1
M  END
> <rmsd>
0.551716745

$$$$
ZINC07053232


 20 21  0  0  0  0  0  0  0  0999 V2000
    1.6941    2.6020   -1.3801 C   0  0  0  0  0
   -3.6161   -2.5272    0.6228 C   0  0  0  0  0
    0.5424    2.6349   -0.5939 C   0  0  0  0  0
    2.3126    1.3835   -1.6606 C   0  0  0  0  0
   -3.1461   -3.1561   -0.5300 C   0  0  0  0  0
   -3.4815   -1.1465    0.7683 C   0  0  0  0  0
    0.6275    0.2309   -0.3687 C   0  0  0  0  0
   -2.4066   -1.0237   -1.3918 C   0  0  0  0  0
    0.0090    1.4493   -0.0882 C   0  0  0  0  0
    1.7793    0.1981   -1.1549 C   0  0  0  0  0
   -2.5414   -2.4044   -1.5374 C   0  0  0  0  0
   -2.8767   -0.3947   -0.2391 C   0  0  0  0  0
   -1.1696    1.4833    0.7167 N   0  0  0  0  0
    2.4086   -1.0419   -1.4417 N   0  0  0  0  0
    3.4433   -1.0489   -2.1517 O   0  0  0  0  0
    1.9135   -2.0973   -0.9770 O   0  0  0  0  0
   -3.7358    1.7848    0.8733 O   0  0  0  0  0
   -2.6441    1.9385   -1.3813 O   0  0  0  0  0
   -2.0894   -3.0087   -2.6441 F   0  0  0  0  0
   -2.7051    1.3571   -0.0541 S   0  0  0  0  0
  1  3  1  0  0  0
  2  5  1  0  0  0
  4 10  1  0  0  0
  6 12  1  0  0  0
  7  9  1  0  0  0
  8 11  1  0  0  0
  9 13  1  0  0  0
 10 14  1  0  0  0
 11 19  1  0  0  0
 14 15  1  0  0  0
 20 12  1  0  0  0
 20 13  1  0  0  0
  1  4  2  0  0  0
  2  6  2  0  0  0
  3  9  2  0  0  0
  5 11  2  0  0  0
  7 10  2  0  0  0
  8 12  2  0  0  0
 14 16  2  0  0  0
 20 17  2  0  0  0
 20 18  2  0  0  0
M  CHG  2  14   1  15  -1
M  END
> <rmsd>
0.551038861

$$$$
ZINC07053232


 20 21  0  0  0  0  0  0  0  0999 V2000
    1.6940    2.6022   -1.3796 C   0  0  0  0  0
   -2.5430   -2.4039   -1.5386 C   0  0  0  0  0
    0.5422    2.6350   -0.5936 C   0  0  0  0  0
    2.3124    1.3838   -1.6603 C   0  0  0  0  0
   -3.1482   -3.1557   -0.5315 C   0  0  0  0  0
   -2.4072   -1.0233   -1.3924 C   0  0  0  0  0
    0.6272    0.2310   -0.3687 C   0  0  0  0  0
   -3.4822   -1.1463    0.7677 C   0  0  0  0  0
    0.0088    1.4494   -0.0880 C   0  0  0  0  0
    1.7791    0.1983   -1.1548 C   0  0  0  0  0
   -3.6179   -2.5269    0.6216 C   0  0  0  0  0
   -2.8770   -0.3945   -0.2393 C   0  0  0  0  0
   -1.1699    1.4833    0.7168 N   0  0  0  0  0
    2.4084   -1.0417   -1.4417 N   0  0  0  0  0
    3.4432   -1.0486   -2.1517 O   0  0  0  0  0
    1.9132   -2.0970   -0.9772 O   0  0  0  0  0
   -3.7361    1.7849    0.8733 O   0  0  0  0  0
   -2.6442    1.9389   -1.3813 O   0  0  0  0  0
   -4.1998   -3.2488    1.5883 F   0  0  0  0  0
   -2.7054    1.3573   -0.0541 S   0  0  0  0  0
  1  3  1  0  0  0
  2  5  1  0  0  0
  4 10  1  0  0  0
  6 12  1  0  0  0
  7  9  1  0  0  0
  8 11  1  0  0  0
  9 13  1  0  0  0
 10 14  1  0  0  0
 11 19  1  0  0  0
 14 15  1  0  0  0
 20 12  1  0  0  0
 20 13  1  0  0  0
  1  4  2  0  0  0
  2  6  2  0  0  0
  3  9  2  0  0  0
  5 11  2  0  0  0
  7 10  2  0  0  0
  8 12  2  0  0  0
 14 16  2  0  0  0
 20 17  2  0  0  0
 20 18  2  0  0  0
M  CHG  2  14   1  15  -1
M  END
> <rmsd>
0.550652623

$$$$
ZINC84560879


 21 22  0  0  0  0  0  0  0  0999 V2000
   -3.3930   -2.1385    0.9213 C   0  0  0  0  0
   -3.4253   -0.8064    1.3336 C   0  0  0  0  0
   -3.7100   -2.4686   -0.3963 C   0  0  0  0  0
   -4.0918   -0.1345   -0.8893 C   0  0  0  0  0
   -3.7747    0.1956    0.4283 C   0  0  0  0  0
   -4.0594   -1.4666   -1.3016 C   0  0  0  0  0
    0.0666    1.2586   -0.6467 C   0  0  0  0  0
    0.0735   -1.1190   -1.6115 C   0  0  0  0  0
    0.7791   -0.0356   -0.8606 C   0  0  0  0  0
    1.2138   -0.3824   -2.2457 C   0  0  0  0  0
   -4.9565    3.7573   -0.5697 C   0  0  0  0  0
   -3.5870    3.7918    0.0975 C   0  0  0  0  0
   -1.5668    2.4098    0.8328 C   0  0  0  0  0
   -2.9377    2.4045    0.1525 C   0  0  0  0  0
   -0.7821    1.2607    0.4441 N   0  0  0  0  0
    2.4641   -1.0959   -2.3509 N   0  0  0  0  0
    3.4853   -0.5703   -1.8600 O   0  0  0  0  0
    0.2693    2.1935   -1.4125 O   0  0  0  0  0
    2.4533   -2.2032   -2.9285 O   0  0  0  0  0
   -3.8078    1.5024    0.8331 O   0  0  0  0  0
   -4.3624   -1.7837   -2.5672 F   0  0  0  0  0
  1  3  1  0  0  0
  2  5  1  0  0  0
  4  6  1  0  0  0
  5 20  1  0  0  0
  6 21  1  0  0  0
  7 15  1  0  0  0
  8  9  1  0  0  0
  8 10  1  0  0  0
  9  7  1  0  0  0
  9 10  1  0  0  0
 10 16  1  0  0  0
 11 12  1  0  0  0
 12 14  1  0  0  0
 13 14  1  0  0  0
 13 15  1  0  0  0
 14 20  1  0  0  0
 16 17  1  0  0  0
  1  2  2  0  0  0
  3  6  2  0  0  0
  4  5  2  0  0  0
  7 18  2  0  0  0
 16 19  2  0  0  0
M  CHG  2  16   1  17  -1
M  END
> <rmsd>
0.372054309

$$$$
ZINC84560879


 21 22  0  0  0  0  0  0  0  0999 V2000
   -4.0567   -1.4661   -1.3020 C   0  0  0  0  0
   -4.0916   -0.1342   -0.8892 C   0  0  0  0  0
   -3.7062   -2.4679   -0.3969 C   0  0  0  0  0
   -3.4253   -0.8059    1.3339 C   0  0  0  0  0
   -3.7759    0.1959    0.4288 C   0  0  0  0  0
   -3.3904   -2.1378    0.9210 C   0  0  0  0  0
    0.0656    1.2585   -0.6460 C   0  0  0  0  0
    0.0722   -1.1190   -1.6112 C   0  0  0  0  0
    0.7779   -0.0357   -0.8601 C   0  0  0  0  0
    1.2126   -0.3824   -2.2453 C   0  0  0  0  0
   -4.9572    3.7579   -0.5688 C   0  0  0  0  0
   -3.5877    3.7921    0.0984 C   0  0  0  0  0
   -1.5677    2.4097    0.8336 C   0  0  0  0  0
   -2.9386    2.4047    0.1533 C   0  0  0  0  0
   -0.7831    1.2606    0.4448 N   0  0  0  0  0
    2.4628   -1.0960   -2.3506 N   0  0  0  0  0
    3.4840   -0.5706   -1.8595 O   0  0  0  0  0
    0.2684    2.1936   -1.4117 O   0  0  0  0  0
    2.4518   -2.2032   -2.9284 O   0  0  0  0  0
   -3.8088    1.5026    0.8337 O   0  0  0  0  0
   -3.0553   -3.1001    1.7903 F   0  0  0  0  0
  1  3  1  0  0  0
  2  5  1  0  0  0
  4  6  1  0  0  0
  5 20  1  0  0  0
  6 21  1  0  0  0
  7 15  1  0  0  0
  8  9  1  0  0  0
  8 10  1  0  0  0
  9  7  1  0  0  0
  9 10  1  0  0  0
 10 16  1  0  0  0
 11 12  1  0  0  0
 12 14  1  0  0  0
 13 14  1  0  0  0
 13 15  1  0  0  0
 14 20  1  0  0  0
 16 17  1  0  0  0
  1  2  2  0  0  0
  3  6  2  0  0  0
  4  5  2  0  0  0
  7 18  2  0  0  0
 16 19  2  0  0  0
M  CHG  2  16   1  17  -1
M  END
> <rmsd>
0.372192383

$$$$
ZINC92688024


 22 24  0  0  0  0  0  0  0  0999 V2000
   -3.9654   -2.9884   -0.4515 C   0  0  0  0  0
   -3.2566   -2.5129    0.6627 C   0  0  0  0  0
   -4.5006   -2.1005   -1.3867 C   0  0  0  0  0
   -3.0717   -1.1424    0.8570 C   0  0  0  0  0
    0.9768    0.1652    0.6840 C   0  0  0  0  0
    2.2895   -0.0968    0.2918 C   0  0  0  0  0
    0.6749    1.5651   -1.2617 C   0  0  0  0  0
   -4.3237   -0.7424   -1.1801 C   0  0  0  0  0
   -3.6121   -0.2653   -0.0710 C   0  0  0  0  0
    1.9876    1.3033   -1.6540 C   0  0  0  0  0
    0.1695    0.9961   -0.0928 C   0  0  0  0  0
    2.7949    0.4723   -0.8771 C   0  0  0  0  0
   -4.7711    0.3835   -2.0582 C   0  0  0  0  0
   -4.6617    1.5727   -1.0925 C   0  0  0  0  0
   -3.5281    1.2384   -0.0965 C   0  0  0  0  0
    2.4985    1.9283   -2.9121 C   0  0  0  0  0
   -2.1661    1.7303   -0.5740 C   0  0  0  0  0
   -1.1440    1.2578    0.3004 N   0  0  0  0  0
    4.1360    0.1909   -1.2582 N   0  0  0  0  0
    4.3618   -0.7994   -1.9930 O   0  0  0  0  0
    5.0524    0.9417   -0.8481 O   0  0  0  0  0
   -3.8166    1.8311    1.1624 O   0  0  0  0  0
  1  3  1  0  0  0
  2  4  1  0  0  0
  5 11  1  0  0  0
  6 12  1  0  0  0
  7 10  1  0  0  0
  8  9  1  0  0  0
 11 18  1  0  0  0
 12 19  1  0  0  0
 13  8  1  0  0  0
 13 14  1  0  0  0
 14 15  1  0  0  0
 15  9  1  0  0  0
 15 17  1  0  0  0
 15 22  1  0  0  0
 16 10  1  0  0  0
 17 18  1  0  0  0
 19 20  1  0  0  0
  1  2  2  0  0  0
  3  8  2  0  0  0
  4  9  2  0  0  0
  5  6  2  0  0  0
  7 11  2  0  0  0
 10 12  2  0  0  0
 19 21  2  0  0  0
M  CHG  2  19   1  20  -1
M  END
> <rmsd>
0.420849681

$$$$
ZINC17024510


 19 20  0  0  0  0  0  0  0  0999 V2000
    0.7862    2.5541   -2.6135 C   0  0  0  0  0
   -3.6041   -2.4569   -1.2591 C   0  0  0  0  0
   -0.1345    2.5153   -1.5665 C   0  0  0  0  0
    1.6191    1.4606   -2.8509 C   0  0  0  0  0
   -3.4374   -1.0675   -1.5273 C   0  0  0  0  0
   -3.4434   -2.7488    0.0775 C   0  0  0  0  0
    0.6103    0.2893   -0.9941 C   0  0  0  0  0
   -0.2225    1.3829   -0.7568 C   0  0  0  0  0
    1.5311    0.3282   -2.0412 C   0  0  0  0  0
   -3.1558   -0.3503   -0.3852 C   0  0  0  0  0
    0.5112   -0.9240   -0.1214 C   0  0  0  0  0
   -1.1741    1.3649    0.3109 N   0  0  0  0  0
    2.3918   -0.7737   -2.3032 N   0  0  0  0  0
    3.5097   -0.8167   -1.7375 O   0  0  0  0  0
    2.0065   -1.6689   -3.0916 O   0  0  0  0  0
   -3.6080    1.7191    1.1111 O   0  0  0  0  0
   -3.0768    2.0856   -1.3144 O   0  0  0  0  0
   -3.0930   -1.3512    1.0027 S   0  0  0  0  0
   -2.8516    1.3655   -0.0757 S   0  0  0  0  0
  1  3  1  0  0  0
  2  5  1  0  0  0
  4  9  1  0  0  0
  6 18  1  0  0  0
  7  8  1  0  0  0
  8 12  1  0  0  0
  9 13  1  0  0  0
 10 18  1  0  0  0
 11  7  1  0  0  0
 13 14  1  0  0  0
 19 10  1  0  0  0
 19 12  1  0  0  0
  1  4  2  0  0  0
  2  6  2  0  0  0
  3  8  2  0  0  0
  5 10  2  0  0  0
  7  9  2  0  0  0
 13 15  2  0  0  0
 19 16  2  0  0  0
 19 17  2  0  0  0
M  CHG  2  13   1  14  -1
M  END
> <rmsd>
0.372544825

$$$$
ZINC17024510


 19 20  0  0  0  0  0  0  0  0999 V2000
    0.6407    2.3618   -2.7878 C   0  0  0  0  0
   -3.5739   -2.7042    0.1054 C   0  0  0  0  0
   -0.2445    2.3905   -1.7104 C   0  0  0  0  0
    1.4966    1.2737   -2.9586 C   0  0  0  0  0
   -3.4715   -1.4239    0.7222 C   0  0  0  0  0
   -3.3194   -2.6486   -1.2474 C   0  0  0  0  0
    0.5822    0.2432   -0.9739 C   0  0  0  0  0
   -0.2738    1.3312   -0.8033 C   0  0  0  0  0
    1.4674    0.2144   -2.0515 C   0  0  0  0  0
   -3.1424   -0.4384   -0.1826 C   0  0  0  0  0
    0.5462   -0.8916    0.0033 C   0  0  0  0  0
   -1.1898    1.3818    0.2941 N   0  0  0  0  0
    2.3507   -0.8834   -2.2469 N   0  0  0  0  0
    3.4869   -0.8479   -1.7184 O   0  0  0  0  0
    1.9663   -1.8537   -2.9413 O   0  0  0  0  0
   -3.6059    1.7411    1.1442 O   0  0  0  0  0
   -3.1636    1.9083   -1.3208 O   0  0  0  0  0
   -2.9586   -1.0578   -1.7685 S   0  0  0  0  0
   -2.8781    1.3051   -0.0330 S   0  0  0  0  0
  1  3  1  0  0  0
  2  5  1  0  0  0
  4  9  1  0  0  0
  6 18  1  0  0  0
  7  8  1  0  0  0
  8 12  1  0  0  0
  9 13  1  0  0  0
 10 18  1  0  0  0
 11  7  1  0  0  0
 13 14  1  0  0  0
 19 10  1  0  0  0
 19 12  1  0  0  0
  1  4  2  0  0  0
  2  6  2  0  0  0
  3  8  2  0  0  0
  5 10  2  0  0  0
  7  9  2  0  0  0
 13 15  2  0  0  0
 19 16  2  0  0  0
 19 17  2  0  0  0
M  CHG  2  13   1  14  -1
M  END
> <rmsd>
0.419418395

$$$$
ZINC94557826


 20 21  0  0  0  0  0  0  0  0999 V2000
   -4.7903   -0.6626    0.7487 C   0  0  0  0  0
   -4.7348   -1.9807    0.2956 C   0  0  0  0  0
   -2.6146   -1.5251   -0.7697 C   0  0  0  0  0
   -2.6702   -0.2071   -0.3166 C   0  0  0  0  0
   -3.7580    0.2242    0.4425 C   0  0  0  0  0
   -3.6470   -2.4119   -0.4636 C   0  0  0  0  0
   -1.5615    0.7218   -0.6558 C   0  0  0  0  0
    3.5797   -0.3378   -1.8278 C   0  0  0  0  0
    3.8283    1.5879   -0.2679 C   0  0  0  0  0
    2.7322    2.3384    0.4486 C   0  0  0  0  0
    3.1158    1.0614   -1.4984 C   0  0  0  0  0
    1.5259    1.4679    0.1546 C   0  0  0  0  0
    0.2059    2.2067    0.2536 C   0  0  0  0  0
   -0.8673    1.2793    0.4183 N   0  0  0  0  0
    3.4723   -1.1760   -0.8902 O   0  0  0  0  0
   -1.3245    0.9676   -1.8356 O   0  0  0  0  0
    4.0167   -0.4880   -3.0032 O   0  0  0  0  0
    1.7165    0.9863   -1.1848 O   0  0  0  0  0
   -3.8316    1.5086    0.8925 O   0  0  0  0  0
   -3.5775   -4.0387   -1.0208 Cl  0  0  0  0  0
  1  2  1  0  0  0
  3  6  1  0  0  0
  4  5  1  0  0  0
  4  7  1  0  0  0
  5 19  1  0  0  0
  6 20  1  0  0  0
  7 14  1  0  0  0
  8 15  1  0  0  0
  9 10  1  0  0  0
  9 11  1  0  0  0
 10 12  1  0  0  0
 11  8  1  0  0  0
 11 18  1  0  0  0
 12 13  1  0  0  0
 12 18  1  0  0  0
 13 14  1  0  0  0
  1  5  2  0  0  0
  2  6  2  0  0  0
  3  4  2  0  0  0
  7 16  2  0  0  0
  8 17  2  0  0  0
M  CHG  1  15  -1
M  END
> <rmsd>
0.367026657

$$$$
ZINC94557826


 20 21  0  0  0  0  0  0  0  0999 V2000
   -4.6525   -0.7703    0.7266 C   0  0  0  0  0
   -4.5884   -2.0308    0.1328 C   0  0  0  0  0
   -2.5943   -1.3677   -1.0593 C   0  0  0  0  0
   -2.6585   -0.1072   -0.4656 C   0  0  0  0  0
   -3.6876    0.1916    0.4273 C   0  0  0  0  0
   -3.5592   -2.3296   -0.7601 C   0  0  0  0  0
   -1.6222    0.9035   -0.7999 C   0  0  0  0  0
    3.4262    0.2166   -2.5231 C   0  0  0  0  0
    3.7431    1.9821   -0.7952 C   0  0  0  0  0
    2.6895    2.6020    0.0902 C   0  0  0  0  0
    2.9412    1.5509   -2.0076 C   0  0  0  0  0
    1.4957    1.7096   -0.1880 C   0  0  0  0  0
    0.1630    2.3703    0.1041 C   0  0  0  0  0
   -0.8541    1.3807    0.2625 N   0  0  0  0  0
    3.4378   -0.7174   -1.6741 O   0  0  0  0  0
   -1.5044    1.2799   -1.9631 O   0  0  0  0  0
    3.7586    0.2085   -3.7415 O   0  0  0  0  0
    1.5806    1.3772   -1.5825 O   0  0  0  0  0
   -3.7688    1.4182    1.0159 O   0  0  0  0  0
   -3.4789   -3.8856   -1.4910 Cl  0  0  0  0  0
  1  2  1  0  0  0
  3  6  1  0  0  0
  4  5  1  0  0  0
  4  7  1  0  0  0
  5 19  1  0  0  0
  6 20  1  0  0  0
  7 14  1  0  0  0
  8 15  1  0  0  0
  9 10  1  0  0  0
  9 11  1  0  0  0
 10 12  1  0  0  0
 11  8  1  0  0  0
 11 18  1  0  0  0
 12 13  1  0  0  0
 12 18  1  0  0  0
 13 14  1  0  0  0
  1  5  2  0  0  0
  2  6  2  0  0  0
  3  4  2  0  0  0
  7 16  2  0  0  0
  8 17  2  0  0  0
M  CHG  1  15  -1
M  END
> <rmsd>
0.391427785

$$$$
ZINC94557825


 20 21  0  0  0  0  0  0  0  0999 V2000
   -4.8154   -0.7307    0.6506 C   0  0  0  0  0
   -4.4226   -2.0275    0.3196 C   0  0  0  0  0
   -2.2508   -1.2009   -0.3414 C   0  0  0  0  0
   -2.6436    0.0959   -0.0104 C   0  0  0  0  0
   -3.9259    0.3310    0.4856 C   0  0  0  0  0
   -3.1403   -2.2627   -0.1763 C   0  0  0  0  0
   -1.6816    1.2126   -0.1961 C   0  0  0  0  0
    3.7297   -0.3942   -1.8856 C   0  0  0  0  0
    3.6891    2.0603   -1.4708 C   0  0  0  0  0
    2.6109    2.8610   -0.7819 C   0  0  0  0  0
    3.5244    0.6867   -0.8508 C   0  0  0  0  0
    1.5055    1.8314   -0.6489 C   0  0  0  0  0
    0.5241    2.1362    0.4656 C   0  0  0  0  0
   -0.4876    1.1300    0.5208 N   0  0  0  0  0
    2.9975   -0.3059   -2.9100 O   0  0  0  0  0
   -1.9808    2.1453   -0.9372 O   0  0  0  0  0
    4.6109   -1.2495   -1.5904 O   0  0  0  0  0
    2.1692    0.5851   -0.3869 O   0  0  0  0  0
   -4.3292    1.5912    0.8125 O   0  0  0  0  0
   -2.6550   -3.8631   -0.5827 Cl  0  0  0  0  0
  1  2  1  0  0  0
  3  6  1  0  0  0
  4  5  1  0  0  0
  4  7  1  0  0  0
  5 19  1  0  0  0
  6 20  1  0  0  0
  7 14  1  0  0  0
  8 15  1  0  0  0
  9 10  1  0  0  0
  9 11  1  0  0  0
 10 12  1  0  0  0
 11  8  1  0  0  0
 11 18  1  0  0  0
 12 13  1  0  0  0
 12 18  1  0  0  0
 13 14  1  0  0  0
  1  5  2  0  0  0
  2  6  2  0  0  0
  3  4  2  0  0  0
  7 16  2  0  0  0
  8 17  2  0  0  0
M  CHG  1  15  -1
M  END
> <rmsd>
0.566791892

$$$$
ZINC81095757


 22 23  0  0  0  0  0  0  0  0999 V2000
   -3.0217   -2.5491   -0.3570 C   0  0  0  0  0
   -3.3022   -1.6287   -1.3668 C   0  0  0  0  0
    2.1453   -1.3789    1.0131 C   0  0  0  0  0
    1.2781   -0.2923    1.0745 C   0  0  0  0  0
   -3.0257   -2.1431    0.9776 C   0  0  0  0  0
   -3.5866   -0.3022   -1.0421 C   0  0  0  0  0
    2.8473   -1.6081   -0.1616 C   0  0  0  0  0
    1.8570    0.2618   -1.1795 C   0  0  0  0  0
    1.1292    0.5395   -0.0311 C   0  0  0  0  0
   -3.3102   -0.8168    1.3022 C   0  0  0  0  0
   -3.5906    0.1038    0.2924 C   0  0  0  0  0
    0.2083    1.7044    0.0143 C   0  0  0  0  0
   -3.7948    3.6689   -0.1926 C   0  0  0  0  0
   -3.0132   -1.4350    3.5794 C   0  0  0  0  0
   -1.8545    2.6354    1.0311 C   0  0  0  0  0
   -2.9978    2.3939    0.0487 C   0  0  0  0  0
    2.6850   -0.7913   -1.2115 N   0  0  0  0  0
   -0.8592    1.5965    0.8912 N   0  0  0  0  0
    3.3478   -1.0265   -2.2877 O   0  0  0  0  0
    0.4208    2.6662   -0.7194 O   0  0  0  0  0
   -3.3099   -0.4325    2.6092 O   0  0  0  0  0
   -3.8700    1.4079    0.5979 O   0  0  0  0  0
  1  2  1  0  0  0
  3  7  1  0  0  0
  4  9  1  0  0  0
  5 10  1  0  0  0
  6 11  1  0  0  0
  8 17  1  0  0  0
  9 12  1  0  0  0
 10 21  1  0  0  0
 11 22  1  0  0  0
 12 18  1  0  0  0
 13 16  1  0  0  0
 14 21  1  0  0  0
 15 16  1  0  0  0
 15 18  1  0  0  0
 16 22  1  0  0  0
 17 19  1  0  0  0
  1  5  2  0  0  0
  2  6  2  0  0  0
  3  4  2  0  0  0
  7 17  2  0  0  0
  8  9  2  0  0  0
 10 11  2  0  0  0
 12 20  2  0  0  0
M  CHG  2  17   1  19  -1
M  END
> <rmsd>
0.510643005

$$$$
ZINC06623211


 21 22  0  0  0  0  0  0  0  0999 V2000
   -2.0449   -3.0372   -2.7325 C   0  0  0  0  0
   -3.6016   -2.5297    0.6106 C   0  0  0  0  0
    1.6661    2.5892   -1.4421 C   0  0  0  0  0
   -3.1302   -3.1538   -0.5443 C   0  0  0  0  0
    0.5220    2.6301   -0.6454 C   0  0  0  0  0
    2.2924    1.3700   -1.7012 C   0  0  0  0  0
   -3.4712   -1.1489    0.7601 C   0  0  0  0  0
   -2.3979   -1.0165   -1.4003 C   0  0  0  0  0
    0.6303    0.2327   -0.3666 C   0  0  0  0  0
   -2.5283   -2.3972   -1.5498 C   0  0  0  0  0
    0.0041    1.4519   -0.1076 C   0  0  0  0  0
    1.7745    0.1918   -1.1634 C   0  0  0  0  0
   -2.8693   -0.3924   -0.2454 C   0  0  0  0  0
   -1.6523   -3.5570   -3.6930 N   0  0  0  0  0
   -1.1754    1.4945    0.7142 N   0  0  0  0  0
    2.4118   -1.0490   -1.4283 N   0  0  0  0  0
    3.4394   -1.0633   -2.1485 O   0  0  0  0  0
    1.9305   -2.0976   -0.9349 O   0  0  0  0  0
   -3.7340    1.7791    0.8785 O   0  0  0  0  0
   -2.6529    1.9460   -1.3805 O   0  0  0  0  0
   -2.7076    1.3359   -0.0576 S   0  0  0  0  0
  2  4  1  0  0  0
  3  6  1  0  0  0
  5 11  1  0  0  0
  7 13  1  0  0  0
  8 10  1  0  0  0
  9 12  1  0  0  0
 10  1  1  0  0  0
 11 15  1  0  0  0
 12 16  1  0  0  0
 16 17  1  0  0  0
 21 13  1  0  0  0
 21 15  1  0  0  0
  2  7  2  0  0  0
  3  5  2  0  0  0
  4 10  2  0  0  0
  6 12  2  0  0  0
  8 13  2  0  0  0
  9 11  2  0  0  0
 16 18  2  0  0  0
 21 19  2  0  0  0
 21 20  2  0  0  0
  1 14  3  0  0  0
M  CHG  2  16   1  17  -1
M  END
> <rmsd>
0.559265018

$$$$
ZINC00074848


 21 22  0  0  0  0  0  0  0  0999 V2000
   -2.9321   -0.7292    2.2211 C   0  0  0  0  0
   -3.1194   -3.1558   -0.5828 C   0  0  0  0  0
   -3.0259   -2.3132   -1.6904 C   0  0  0  0  0
    1.6609    2.5861   -1.4545 C   0  0  0  0  0
   -3.0874   -2.6209    0.7051 C   0  0  0  0  0
    0.5182    2.6300   -0.6559 C   0  0  0  0  0
    2.2878    1.3662   -1.7087 C   0  0  0  0  0
   -2.9003   -0.9357   -1.5102 C   0  0  0  0  0
    0.6292    0.2340   -0.3654 C   0  0  0  0  0
   -2.9618   -1.2435    0.8853 C   0  0  0  0  0
    0.0024    1.4540   -0.1112 C   0  0  0  0  0
    1.7719    0.1901   -1.1641 C   0  0  0  0  0
   -2.8682   -0.4008   -0.2223 C   0  0  0  0  0
   -2.9081   -0.3123    3.3039 N   0  0  0  0  0
   -1.1756    1.4997    0.7125 N   0  0  0  0  0
    2.4098   -1.0513   -1.4240 N   0  0  0  0  0
    3.4360   -1.0684   -2.1461 O   0  0  0  0  0
    1.9304   -2.0979   -0.9245 O   0  0  0  0  0
   -3.7343    1.7796    0.8829 O   0  0  0  0  0
   -2.6614    1.9266   -1.3813 O   0  0  0  0  0
   -2.7094    1.3363   -0.0516 S   0  0  0  0  0
  2  3  1  0  0  0
  4  7  1  0  0  0
  5 10  1  0  0  0
  6 11  1  0  0  0
  8 13  1  0  0  0
  9 12  1  0  0  0
 10  1  1  0  0  0
 11 15  1  0  0  0
 12 16  1  0  0  0
 16 17  1  0  0  0
 21 13  1  0  0  0
 21 15  1  0  0  0
  2  5  2  0  0  0
  3  8  2  0  0  0
  4  6  2  0  0  0
  7 12  2  0  0  0
  9 11  2  0  0  0
 10 13  2  0  0  0
 16 18  2  0  0  0
 21 19  2  0  0  0
 21 20  2  0  0  0
  1 14  3  0  0  0
M  CHG  2  16   1  17  -1
M  END
> <rmsd>
0.564068198

$$$$
ZINC07053260


 21 22  0  0  0  0  0  0  0  0999 V2000
   -3.2609   -4.5680   -0.6998 C   0  0  0  0  0
    1.6661    2.5886   -1.4420 C   0  0  0  0  0
   -3.6004   -2.5311    0.6096 C   0  0  0  0  0
   -2.5269   -2.3959   -1.5506 C   0  0  0  0  0
    0.5221    2.6297   -0.6451 C   0  0  0  0  0
    2.2922    1.3694   -1.7010 C   0  0  0  0  0
   -3.4708   -1.1505    0.7604 C   0  0  0  0  0
   -2.3974   -1.0153   -1.3999 C   0  0  0  0  0
    0.6303    0.2323   -0.3661 C   0  0  0  0  0
   -3.1283   -3.1538   -0.5459 C   0  0  0  0  0
    0.0043    1.4515   -0.1071 C   0  0  0  0  0
    1.7745    0.1912   -1.1630 C   0  0  0  0  0
   -2.8694   -0.3925   -0.2444 C   0  0  0  0  0
   -3.3686   -5.7168   -0.8248 N   0  0  0  0  0
   -1.1751    1.4943    0.7149 N   0  0  0  0  0
    2.4117   -1.0496   -1.4280 N   0  0  0  0  0
    3.4391   -1.0641   -2.1483 O   0  0  0  0  0
    1.9303   -2.0982   -0.9344 O   0  0  0  0  0
   -3.7337    1.7790    0.8795 O   0  0  0  0  0
   -2.6529    1.9457   -1.3795 O   0  0  0  0  0
   -2.7075    1.3357   -0.0567 S   0  0  0  0  0
  2  5  1  0  0  0
  3 10  1  0  0  0
  4  8  1  0  0  0
  6 12  1  0  0  0
  7 13  1  0  0  0
  9 11  1  0  0  0
 10  1  1  0  0  0
 11 15  1  0  0  0
 12 16  1  0  0  0
 16 17  1  0  0  0
 21 13  1  0  0  0
 21 15  1  0  0  0
  2  6  2  0  0  0
  3  7  2  0  0  0
  4 10  2  0  0  0
  5 11  2  0  0  0
  8 13  2  0  0  0
  9 12  2  0  0  0
 16 18  2  0  0  0
 21 19  2  0  0  0
 21 20  2  0  0  0
  1 14  3  0  0  0
M  CHG  2  16   1  17  -1
M  END
> <rmsd>
0.559780598

$$$$
ZINC05516107


 21 22  0  0  0  0  0  0  0  0999 V2000
    0.8785    2.5120   -2.5628 C   0  0  0  0  0
    1.8470    1.5093   -2.6073 C   0  0  0  0  0
   -2.9099   -2.3115   -1.7704 C   0  0  0  0  0
   -3.5504   -2.5633    0.5455 C   0  0  0  0  0
   -0.1002    2.4929   -1.5690 C   0  0  0  0  0
   -2.7430   -0.9405   -1.5751 C   0  0  0  0  0
   -3.3833   -1.1923    0.7408 C   0  0  0  0  0
    0.8581    0.4681   -0.6644 C   0  0  0  0  0
    1.8368    0.4872   -1.6581 C   0  0  0  0  0
   -3.3138   -3.1229   -0.7101 C   0  0  0  0  0
   -0.1104    1.4708   -0.6198 C   0  0  0  0  0
   -2.9796   -0.3809   -0.3196 C   0  0  0  0  0
    2.8591   -0.5708   -1.7058 C   0  0  0  0  0
   -4.9151   -4.9425   -1.3514 C   0  0  0  0  0
   -3.4946   -4.5882   -0.9191 C   0  0  0  0  0
   -1.1125    1.4509    0.3968 N   0  0  0  0  0
    2.8279   -1.5029   -0.8177 O   0  0  0  0  0
    3.7510   -0.5293   -2.6338 O   0  0  0  0  0
   -3.5997    1.7259    1.0598 O   0  0  0  0  0
   -2.9602    2.0152   -1.3499 O   0  0  0  0  0
   -2.7680    1.3587   -0.0710 S   0  0  0  0  0
  1  2  1  0  0  0
  3 10  1  0  0  0
  4  7  1  0  0  0
  5 11  1  0  0  0
  6 12  1  0  0  0
  8  9  1  0  0  0
  9 13  1  0  0  0
 11 16  1  0  0  0
 13 17  1  0  0  0
 14 15  1  0  0  0
 15 10  1  0  0  0
 21 12  1  0  0  0
 21 16  1  0  0  0
  1  5  2  0  0  0
  2  9  2  0  0  0
  3  6  2  0  0  0
  4 10  2  0  0  0
  7 12  2  0  0  0
  8 11  2  0  0  0
 13 18  2  0  0  0
 21 19  2  0  0  0
 21 20  2  0  0  0
M  CHG  1  17  -1
M  END
> <rmsd>
0.519177854

$$$$
ZINC03013937


 21 22  0  0  0  0  0  0  0  0999 V2000
    0.8785    2.5120   -2.5628 C   0  0  0  0  0
    1.8471    1.5092   -2.6072 C   0  0  0  0  0
   -0.1001    2.4929   -1.5689 C   0  0  0  0  0
   -3.5503   -2.5633    0.5454 C   0  0  0  0  0
   -2.9107   -2.3109   -1.7707 C   0  0  0  0  0
   -3.3828   -1.1925    0.7411 C   0  0  0  0  0
   -2.7433   -0.9399   -1.5751 C   0  0  0  0  0
    0.8582    0.4681   -0.6641 C   0  0  0  0  0
    1.8369    0.4872   -1.6579 C   0  0  0  0  0
   -0.1103    1.4709   -0.6197 C   0  0  0  0  0
   -3.3142   -3.1225   -0.7105 C   0  0  0  0  0
   -2.9794   -0.3808   -0.3191 C   0  0  0  0  0
    2.8592   -0.5708   -1.7056 C   0  0  0  0  0
   -3.8924   -5.2310    0.2253 C   0  0  0  0  0
   -1.1123    1.4511    0.3970 N   0  0  0  0  0
    2.8280   -1.5029   -0.8174 O   0  0  0  0  0
    3.7510   -0.5294   -2.6337 O   0  0  0  0  0
   -3.5995    1.7262    1.0602 O   0  0  0  0  0
   -2.9601    2.0152   -1.3496 O   0  0  0  0  0
   -3.4778   -4.4600   -0.9014 O   0  0  0  0  0
   -2.7678    1.3588   -0.0707 S   0  0  0  0  0
  1  2  1  0  0  0
  3 10  1  0  0  0
  4 11  1  0  0  0
  5  7  1  0  0  0
  6 12  1  0  0  0
  8  9  1  0  0  0
  9 13  1  0  0  0
 10 15  1  0  0  0
 11 20  1  0  0  0
 13 16  1  0  0  0
 14 20  1  0  0  0
 21 12  1  0  0  0
 21 15  1  0  0  0
  1  3  2  0  0  0
  2  9  2  0  0  0
  4  6  2  0  0  0
  5 11  2  0  0  0
  7 12  2  0  0  0
  8 10  2  0  0  0
 13 17  2  0  0  0
 21 18  2  0  0  0
 21 19  2  0  0  0
M  CHG  1  16  -1
M  END
> <rmsd>
0.519468486

$$$$
ZINC00207285


 21 22  0  0  0  0  0  0  0  0999 V2000
   -3.2487   -2.5884    0.4355 C   0  0  0  0  0
   -2.4225   -2.2401   -1.8080 C   0  0  0  0  0
   -0.0361    2.7631   -1.2889 C   0  0  0  0  0
    1.0242    2.8786   -2.1877 C   0  0  0  0  0
   -3.2107   -1.2128    0.6631 C   0  0  0  0  0
   -2.3845   -0.8645   -1.5804 C   0  0  0  0  0
    0.9950    0.8025   -0.3244 C   0  0  0  0  0
    2.0553    0.9180   -1.2232 C   0  0  0  0  0
   -2.8546   -3.1021   -0.8001 C   0  0  0  0  0
   -0.0507    1.7251   -0.3572 C   0  0  0  0  0
    2.0699    1.9561   -2.1549 C   0  0  0  0  0
   -2.7786   -0.3509   -0.3449 C   0  0  0  0  0
    3.1523   -0.0651   -1.1746 C   0  0  0  0  0
   -2.8931   -4.5730   -1.0431 C   0  0  0  0  0
   -1.1363    1.6072    0.5627 N   0  0  0  0  0
    3.0590   -1.1306   -1.8904 O   0  0  0  0  0
    4.1648    0.1759   -0.4179 O   0  0  0  0  0
   -3.6874    1.6738    0.9971 O   0  0  0  0  0
   -2.8567    2.0590   -1.3398 O   0  0  0  0  0
    3.0969    2.0857   -3.0413 O   0  0  0  0  0
   -2.7298    1.3948   -0.0568 S   0  0  0  0  0
  1  9  1  0  0  0
  2  6  1  0  0  0
  3 10  1  0  0  0
  4 11  1  0  0  0
  5 12  1  0  0  0
  7  8  1  0  0  0
  8 13  1  0  0  0
 10 15  1  0  0  0
 11 20  1  0  0  0
 13 16  1  0  0  0
 14  9  1  0  0  0
 21 12  1  0  0  0
 21 15  1  0  0  0
  1  5  2  0  0  0
  2  9  2  0  0  0
  3  4  2  0  0  0
  6 12  2  0  0  0
  7 10  2  0  0  0
  8 11  2  0  0  0
 13 17  2  0  0  0
 21 18  2  0  0  0
 21 19  2  0  0  0
M  CHG  1  16  -1
M  END
> <rmsd>
0.704364896

$$$$
ZINC00207285


 21 22  0  0  0  0  0  0  0  0999 V2000
   -3.5435   -2.5659    0.5415 C   0  0  0  0  0
   -2.9075   -2.3088   -1.7751 C   0  0  0  0  0
   -0.1047    2.4974   -1.5729 C   0  0  0  0  0
    0.8721    2.5192   -2.5683 C   0  0  0  0  0
   -3.3784   -1.1950    0.7390 C   0  0  0  0  0
   -2.7424   -0.9379   -1.5776 C   0  0  0  0  0
    0.8585    0.4730   -0.6721 C   0  0  0  0  0
    1.8353    0.4949   -1.6675 C   0  0  0  0  0
   -3.3080   -3.1228   -0.7156 C   0  0  0  0  0
   -0.1115    1.4744   -0.6247 C   0  0  0  0  0
    1.8422    1.5180   -2.6156 C   0  0  0  0  0
   -2.9779   -0.3810   -0.3206 C   0  0  0  0  0
    2.8530   -0.5707   -1.7027 C   0  0  0  0  0
   -3.4824   -4.5888   -0.9266 C   0  0  0  0  0
   -1.1117    1.4523    0.3940 N   0  0  0  0  0
    2.6111   -1.6335   -2.3868 O   0  0  0  0  0
    3.9478   -0.4012   -1.0479 O   0  0  0  0  0
   -3.5978    1.7237    1.0621 O   0  0  0  0  0
   -2.9634    2.0161   -1.3486 O   0  0  0  0  0
    2.7882    1.5567   -3.5958 O   0  0  0  0  0
   -2.7680    1.3586   -0.0708 S   0  0  0  0  0
  1  9  1  0  0  0
  2  6  1  0  0  0
  3 10  1  0  0  0
  4 11  1  0  0  0
  5 12  1  0  0  0
  7  8  1  0  0  0
  8 13  1  0  0  0
 10 15  1  0  0  0
 11 20  1  0  0  0
 13 16  1  0  0  0
 14  9  1  0  0  0
 21 12  1  0  0  0
 21 15  1  0  0  0
  1  5  2  0  0  0
  2  9  2  0  0  0
  3  4  2  0  0  0
  6 12  2  0  0  0
  7 10  2  0  0  0
  8 11  2  0  0  0
 13 17  2  0  0  0
 21 18  2  0  0  0
 21 19  2  0  0  0
M  CHG  1  16  -1
M  END
> <rmsd>
0.523660123

$$$$
ZINC07053238


 21 22  0  0  0  0  0  0  0  0999 V2000
    1.6618    2.5868   -1.4512 C   0  0  0  0  0
   -3.1236   -3.1557   -0.5681 C   0  0  0  0  0
   -3.0906   -2.6105    0.7153 C   0  0  0  0  0
    0.5187    2.6297   -0.6529 C   0  0  0  0  0
    2.2884    1.3672   -1.7069 C   0  0  0  0  0
   -2.9019   -0.9435   -1.5136 C   0  0  0  0  0
    0.6292    0.2334   -0.3659 C   0  0  0  0  0
   -3.0292   -2.3222   -1.6827 C   0  0  0  0  0
   -2.9633   -1.2317    0.8843 C   0  0  0  0  0
    0.0025    1.4531   -0.1103 C   0  0  0  0  0
    1.7722    0.1905   -1.1642 C   0  0  0  0  0
   -2.8690   -0.3982   -0.2301 C   0  0  0  0  0
   -3.0650   -2.9058   -3.0548 C   0  0  0  0  0
   -2.9316   -0.6803    2.2723 C   0  0  0  0  0
   -1.1758    1.4977    0.7131 N   0  0  0  0  0
    2.4100   -1.0508   -1.4259 N   0  0  0  0  0
    3.4366   -1.0669   -2.1474 O   0  0  0  0  0
    1.9302   -2.0979   -0.9280 O   0  0  0  0  0
   -3.7345    1.7791    0.8817 O   0  0  0  0  0
   -2.6591    1.9331   -1.3808 O   0  0  0  0  0
   -2.7093    1.3356   -0.0535 S   0  0  0  0  0
  1  5  1  0  0  0
  2  8  1  0  0  0
  3  9  1  0  0  0
  4 10  1  0  0  0
  6 12  1  0  0  0
  7 11  1  0  0  0
 10 15  1  0  0  0
 11 16  1  0  0  0
 13  8  1  0  0  0
 14  9  1  0  0  0
 16 17  1  0  0  0
 21 12  1  0  0  0
 21 15  1  0  0  0
  1  4  2  0  0  0
  2  3  2  0  0  0
  5 11  2  0  0  0
  6  8  2  0  0  0
  7 10  2  0  0  0
  9 12  2  0  0  0
 16 18  2  0  0  0
 21 19  2  0  0  0
 21 20  2  0  0  0
M  CHG  2  16   1  17  -1
M  END
> <rmsd>
0.562189281

$$$$
ZINC60232531


 21 22  0  0  0  0  0  0  0  0999 V2000
   -3.5986   -3.0913   -0.6732 C   0  0  0  0  0
   -3.7266   -2.5343    0.5991 C   0  0  0  0  0
   -3.2422   -2.2857   -1.7546 C   0  0  0  0  0
    0.7335    2.4777   -2.7112 C   0  0  0  0  0
    1.5691    1.3785   -2.9087 C   0  0  0  0  0
   -3.4982   -1.1715    0.7900 C   0  0  0  0  0
   -3.0139   -0.9230   -1.5638 C   0  0  0  0  0
   -0.1718    2.4839   -1.6500 C   0  0  0  0  0
    0.5942    0.2914   -0.9839 C   0  0  0  0  0
   -0.2415    1.3907   -0.7864 C   0  0  0  0  0
    1.4995    0.2853   -2.0450 C   0  0  0  0  0
   -3.1419   -0.3659   -0.2915 C   0  0  0  0  0
   -1.0543    3.6750   -1.4635 C   0  0  0  0  0
    0.5169   -0.8804   -0.0540 C   0  0  0  0  0
   -1.1718    1.4001    0.3030 N   0  0  0  0  0
    2.3636   -0.8225   -2.2673 N   0  0  0  0  0
    3.4900   -0.8318   -1.7173 O   0  0  0  0  0
    1.9728   -1.7564   -3.0066 O   0  0  0  0  0
   -3.5919    1.7495    1.1399 O   0  0  0  0  0
   -3.1161    2.0362   -1.3077 O   0  0  0  0  0
   -2.8554    1.3638   -0.0494 S   0  0  0  0  0
  1  2  1  0  0  0
  3  7  1  0  0  0
  4  8  1  0  0  0
  5 11  1  0  0  0
  6 12  1  0  0  0
  9 10  1  0  0  0
 10 15  1  0  0  0
 11 16  1  0  0  0
 13  8  1  0  0  0
 14  9  1  0  0  0
 16 17  1  0  0  0
 21 12  1  0  0  0
 21 15  1  0  0  0
  1  3  2  0  0  0
  2  6  2  0  0  0
  4  5  2  0  0  0
  7 12  2  0  0  0
  8 10  2  0  0  0
  9 11  2  0  0  0
 16 18  2  0  0  0
 21 19  2  0  0  0
 21 20  2  0  0  0
M  CHG  2  16   1  17  -1
M  END
> <rmsd>
0.398469716

$$$$
ZINC05262274


 21 22  0  0  0  0  0  0  0  0999 V2000
    1.6661    2.5888   -1.4419 C   0  0  0  0  0
   -3.6002   -2.5308    0.6093 C   0  0  0  0  0
   -2.5260   -2.3955   -1.5505 C   0  0  0  0  0
    0.5221    2.6299   -0.6450 C   0  0  0  0  0
    2.2922    1.3696   -1.7011 C   0  0  0  0  0
   -3.4711   -1.1501    0.7600 C   0  0  0  0  0
   -2.3971   -1.0148   -1.4000 C   0  0  0  0  0
    0.6302    0.2323   -0.3663 C   0  0  0  0  0
   -3.1276   -3.1535   -0.5459 C   0  0  0  0  0
    0.0042    1.4517   -0.1071 C   0  0  0  0  0
    1.7742    0.1913   -1.1633 C   0  0  0  0  0
   -2.8696   -0.3921   -0.2446 C   0  0  0  0  0
   -2.0588   -5.3874   -0.1537 C   0  0  0  0  0
   -3.2634   -4.6299   -0.7064 C   0  0  0  0  0
   -1.1751    1.4944    0.7147 N   0  0  0  0  0
    2.4114   -1.0495   -1.4285 N   0  0  0  0  0
    3.4388   -1.0640   -2.1487 O   0  0  0  0  0
    1.9299   -2.0981   -0.9350 O   0  0  0  0  0
   -3.7337    1.7794    0.8795 O   0  0  0  0  0
   -2.6529    1.9462   -1.3796 O   0  0  0  0  0
   -2.7075    1.3361   -0.0567 S   0  0  0  0  0
  1  5  1  0  0  0
  2  9  1  0  0  0
  3  7  1  0  0  0
  4 10  1  0  0  0
  6 12  1  0  0  0
  8 11  1  0  0  0
 10 15  1  0  0  0
 11 16  1  0  0  0
 13 14  1  0  0  0
 14  9  1  0  0  0
 16 17  1  0  0  0
 21 12  1  0  0  0
 21 15  1  0  0  0
  1  4  2  0  0  0
  2  6  2  0  0  0
  3  9  2  0  0  0
  5 11  2  0  0  0
  7 12  2  0  0  0
  8 10  2  0  0  0
 16 18  2  0  0  0
 21 19  2  0  0  0
 21 20  2  0  0  0
M  CHG  2  16   1  17  -1
M  END
> <rmsd>
0.559982419

$$$$
ZINC03581246


 21 22  0  0  0  0  0  0  0  0999 V2000
    1.6657    2.5892   -1.4412 C   0  0  0  0  0
   -3.6006   -2.5300    0.6102 C   0  0  0  0  0
    0.5217    2.6301   -0.6445 C   0  0  0  0  0
    2.2918    1.3700   -1.7006 C   0  0  0  0  0
   -3.4720   -1.1492    0.7597 C   0  0  0  0  0
   -2.3969   -1.0155   -1.3997 C   0  0  0  0  0
    0.6296    0.2326   -0.3663 C   0  0  0  0  0
   -3.1272   -3.1537   -0.5443 C   0  0  0  0  0
   -2.5254   -2.3963   -1.5493 C   0  0  0  0  0
    0.0036    1.4518   -0.1069 C   0  0  0  0  0
    1.7738    0.1917   -1.1632 C   0  0  0  0  0
   -2.8702   -0.3919   -0.2452 C   0  0  0  0  0
   -3.2754   -4.6334   -0.6815 C   0  0  0  0  0
   -2.0098   -3.0420   -2.7934 C   0  0  0  0  0
   -1.1758    1.4944    0.7149 N   0  0  0  0  0
    2.4109   -1.0491   -1.4284 N   0  0  0  0  0
    3.4384   -1.0635   -2.1485 O   0  0  0  0  0
    1.9295   -2.0978   -0.9352 O   0  0  0  0  0
   -3.7344    1.7794    0.8793 O   0  0  0  0  0
   -2.6533    1.9467   -1.3796 O   0  0  0  0  0
   -2.7081    1.3362   -0.0569 S   0  0  0  0  0
  1  4  1  0  0  0
  2  8  1  0  0  0
  3 10  1  0  0  0
  5 12  1  0  0  0
  6  9  1  0  0  0
  7 11  1  0  0  0
 10 15  1  0  0  0
 11 16  1  0  0  0
 13  8  1  0  0  0
 14  9  1  0  0  0
 16 17  1  0  0  0
 21 12  1  0  0  0
 21 15  1  0  0  0
  1  3  2  0  0  0
  2  5  2  0  0  0
  4 11  2  0  0  0
  6 12  2  0  0  0
  7 10  2  0  0  0
  8  9  2  0  0  0
 16 18  2  0  0  0
 21 19  2  0  0  0
 21 20  2  0  0  0
M  CHG  2  16   1  17  -1
M  END
> <rmsd>
0.560106933

$$$$
ZINC37462906


 21 22  0  0  0  0  0  0  0  0999 V2000
    0.8798    2.5137   -2.5611 C   0  0  0  0  0
    1.8480    1.5106   -2.6061 C   0  0  0  0  0
   -3.3119   -3.1227   -0.7072 C   0  0  0  0  0
   -0.0992    2.4940   -1.5676 C   0  0  0  0  0
   -2.9077   -2.3131   -1.7687 C   0  0  0  0  0
    0.8580    0.4680   -0.6645 C   0  0  0  0  0
   -3.3844   -1.1893    0.7398 C   0  0  0  0  0
    1.8370    0.4877   -1.6578 C   0  0  0  0  0
   -3.5503   -2.5608    0.5471 C   0  0  0  0  0
   -0.1102    1.4712   -0.6194 C   0  0  0  0  0
   -2.7417   -0.9416   -1.5760 C   0  0  0  0  0
   -2.9801   -0.3797   -0.3217 C   0  0  0  0  0
    2.8589   -0.5707   -1.7062 C   0  0  0  0  0
   -3.9827   -3.4267    1.6817 C   0  0  0  0  0
   -1.1126    1.4507    0.3969 N   0  0  0  0  0
    2.8271   -1.5036   -0.8189 O   0  0  0  0  0
    3.7512   -0.5288   -2.6339 O   0  0  0  0  0
   -3.5999    1.7261    1.0594 O   0  0  0  0  0
   -2.9595    2.0173   -1.3498 O   0  0  0  0  0
   -2.3523   -0.1739   -2.6033 F   0  0  0  0  0
   -2.7679    1.3596   -0.0715 S   0  0  0  0  0
  1  2  1  0  0  0
  3  9  1  0  0  0
  4 10  1  0  0  0
  5 11  1  0  0  0
  6  8  1  0  0  0
  7 12  1  0  0  0
  8 13  1  0  0  0
 10 15  1  0  0  0
 11 20  1  0  0  0
 13 16  1  0  0  0
 14  9  1  0  0  0
 21 12  1  0  0  0
 21 15  1  0  0  0
  1  4  2  0  0  0
  2  8  2  0  0  0
  3  5  2  0  0  0
  6 10  2  0  0  0
  7  9  2  0  0  0
 11 12  2  0  0  0
 13 17  2  0  0  0
 21 18  2  0  0  0
 21 19  2  0  0  0
M  CHG  1  16  -1
M  END
> <rmsd>
0.51952821

$$$$
ZINC48231534


 21 22  0  0  0  0  0  0  0  0999 V2000
    1.6629    2.5879   -1.4482 C   0  0  0  0  0
   -3.1231   -3.1549   -0.5628 C   0  0  0  0  0
    0.5195    2.6302   -0.6504 C   0  0  0  0  0
    2.2892    1.3684   -1.7052 C   0  0  0  0  0
   -3.1961   -2.5947    0.7125 C   0  0  0  0  0
   -2.7967   -0.9564   -1.5099 C   0  0  0  0  0
    0.6288    0.2335   -0.3666 C   0  0  0  0  0
   -2.9233   -2.3357   -1.6740 C   0  0  0  0  0
    0.0026    1.4530   -0.1096 C   0  0  0  0  0
    1.7723    0.1911   -1.1644 C   0  0  0  0  0
   -3.0695   -1.2154    0.8767 C   0  0  0  0  0
   -2.8698   -0.3961   -0.2345 C   0  0  0  0  0
   -2.8450   -2.9353   -3.0370 C   0  0  0  0  0
   -1.1761    1.4970    0.7133 N   0  0  0  0  0
    2.4097   -1.0500   -1.4273 N   0  0  0  0  0
    3.4365   -1.0657   -2.1484 O   0  0  0  0  0
    1.9291   -2.0977   -0.9310 O   0  0  0  0  0
   -3.7348    1.7796    0.8807 O   0  0  0  0  0
   -2.6579    1.9371   -1.3808 O   0  0  0  0  0
   -3.1446   -0.6898    2.1315 O   0  0  0  0  0
   -2.7092    1.3366   -0.0546 S   0  0  0  0  0
  1  4  1  0  0  0
  2  8  1  0  0  0
  3  9  1  0  0  0
  5 11  1  0  0  0
  6 12  1  0  0  0
  7 10  1  0  0  0
  9 14  1  0  0  0
 10 15  1  0  0  0
 11 20  1  0  0  0
 13  8  1  0  0  0
 15 16  1  0  0  0
 21 12  1  0  0  0
 21 14  1  0  0  0
  1  3  2  0  0  0
  2  5  2  0  0  0
  4 10  2  0  0  0
  6  8  2  0  0  0
  7  9  2  0  0  0
 11 12  2  0  0  0
 15 17  2  0  0  0
 21 18  2  0  0  0
 21 19  2  0  0  0
M  CHG  2  15   1  16  -1
M  END
> <rmsd>
0.562123179

$$$$
ZINC93634350


 21 22  0  0  0  0  0  0  0  0999 V2000
    1.6948    2.6019   -1.3800 C   0  0  0  0  0
    0.5424    2.6345   -0.5948 C   0  0  0  0  0
    2.3139    1.3835   -1.6597 C   0  0  0  0  0
   -3.6184   -2.5262    0.6234 C   0  0  0  0  0
   -3.4814   -1.1457    0.7686 C   0  0  0  0  0
    0.6282    0.2306   -0.3689 C   0  0  0  0  0
   -2.4088   -1.0247   -1.3930 C   0  0  0  0  0
    0.0092    1.4489   -0.0892 C   0  0  0  0  0
   -2.5458   -2.4053   -1.5381 C   0  0  0  0  0
    1.7806    0.1980   -1.1541 C   0  0  0  0  0
   -3.1505   -3.1561   -0.5300 C   0  0  0  0  0
   -2.8767   -0.3950   -0.2396 C   0  0  0  0  0
   -2.0687   -3.0297   -2.7112 N   0  0  0  0  0
   -1.1693    1.4827    0.7160 N   0  0  0  0  0
    2.4099   -1.0421   -1.4412 N   0  0  0  0  0
    3.4443   -1.0489   -2.1515 O   0  0  0  0  0
    1.9146   -2.0972   -0.9769 O   0  0  0  0  0
   -3.7355    1.7844    0.8735 O   0  0  0  0  0
   -2.6443    1.9385   -1.3815 O   0  0  0  0  0
   -3.2937   -4.5059   -0.6521 O   0  0  0  0  0
   -2.7050    1.3568   -0.0543 S   0  0  0  0  0
  1  2  1  0  0  0
  3 10  1  0  0  0
  4 11  1  0  0  0
  5 12  1  0  0  0
  6  8  1  0  0  0
  7  9  1  0  0  0
  8 14  1  0  0  0
  9 13  1  0  0  0
 10 15  1  0  0  0
 11 20  1  0  0  0
 15 16  1  0  0  0
 21 12  1  0  0  0
 21 14  1  0  0  0
  1  3  2  0  0  0
  2  8  2  0  0  0
  4  5  2  0  0  0
  6 10  2  0  0  0
  7 12  2  0  0  0
  9 11  2  0  0  0
 15 17  2  0  0  0
 21 18  2  0  0  0
 21 19  2  0  0  0
M  CHG  2  15   1  16  -1
M  END
> <rmsd>
0.549579024

$$$$
ZINC00073719


 21 22  0  0  0  0  0  0  0  0999 V2000
   -0.0368    2.7634   -1.2892 C   0  0  0  0  0
    1.0234    2.8790   -2.1881 C   0  0  0  0  0
   -3.2486   -2.5880    0.4361 C   0  0  0  0  0
   -2.4218   -2.2404   -1.8072 C   0  0  0  0  0
   -3.2112   -1.2122    0.6631 C   0  0  0  0  0
   -2.3844   -0.8647   -1.5802 C   0  0  0  0  0
    0.9944    0.8029   -0.3249 C   0  0  0  0  0
    2.0547    0.9184   -1.2239 C   0  0  0  0  0
   -0.0514    1.7254   -0.3575 C   0  0  0  0  0
    2.0692    1.9566   -2.1555 C   0  0  0  0  0
   -2.8540   -3.1021   -0.7990 C   0  0  0  0  0
   -2.7791   -0.3506   -0.3451 C   0  0  0  0  0
    3.1516   -0.0647   -1.1755 C   0  0  0  0  0
   -1.1368    1.6074    0.5624 N   0  0  0  0  0
    3.0583   -1.1301   -1.8914 O   0  0  0  0  0
    4.1643    0.1762   -0.4188 O   0  0  0  0  0
   -3.6878    1.6740    0.9971 O   0  0  0  0  0
   -2.8574    2.0593   -1.3399 O   0  0  0  0  0
    3.0961    2.0863   -3.0420 O   0  0  0  0  0
   -2.8885   -4.4233   -1.0164 F   0  0  0  0  0
   -2.7304    1.3951   -0.0569 S   0  0  0  0  0
  1  9  1  0  0  0
  2 10  1  0  0  0
  3  5  1  0  0  0
  4 11  1  0  0  0
  6 12  1  0  0  0
  7  8  1  0  0  0
  8 13  1  0  0  0
  9 14  1  0  0  0
 10 19  1  0  0  0
 11 20  1  0  0  0
 13 15  1  0  0  0
 21 12  1  0  0  0
 21 14  1  0  0  0
  1  2  2  0  0  0
  3 11  2  0  0  0
  4  6  2  0  0  0
  5 12  2  0  0  0
  7  9  2  0  0  0
  8 10  2  0  0  0
 13 16  2  0  0  0
 21 17  2  0  0  0
 21 18  2  0  0  0
M  CHG  1  15  -1
M  END
> <rmsd>
0.704577088

$$$$
ZINC00073719


 21 22  0  0  0  0  0  0  0  0999 V2000
   -0.1054    2.4977   -1.5732 C   0  0  0  0  0
    0.8713    2.5197   -2.5687 C   0  0  0  0  0
   -3.5433   -2.5654    0.5422 C   0  0  0  0  0
   -2.9069   -2.3092   -1.7743 C   0  0  0  0  0
   -3.3789   -1.1944    0.7390 C   0  0  0  0  0
   -2.7425   -0.9381   -1.5775 C   0  0  0  0  0
    0.8579    0.4734   -0.6727 C   0  0  0  0  0
    1.8346    0.4952   -1.6682 C   0  0  0  0  0
   -0.1122    1.4747   -0.6251 C   0  0  0  0  0
    1.8413    1.5185   -2.6162 C   0  0  0  0  0
   -3.3074   -3.1228   -0.7145 C   0  0  0  0  0
   -2.9784   -0.3807   -0.3208 C   0  0  0  0  0
    2.8522   -0.5703   -1.7036 C   0  0  0  0  0
   -1.1121    1.4526    0.3937 N   0  0  0  0  0
    2.6102   -1.6331   -2.3878 O   0  0  0  0  0
    3.9471   -0.4009   -1.0489 O   0  0  0  0  0
   -3.5982    1.7239    1.0622 O   0  0  0  0  0
   -2.9641    2.0165   -1.3486 O   0  0  0  0  0
    2.7872    1.5572   -3.5966 O   0  0  0  0  0
   -3.4639   -4.4397   -0.9032 F   0  0  0  0  0
   -2.7685    1.3589   -0.0709 S   0  0  0  0  0
  1  9  1  0  0  0
  2 10  1  0  0  0
  3  5  1  0  0  0
  4 11  1  0  0  0
  6 12  1  0  0  0
  7  8  1  0  0  0
  8 13  1  0  0  0
  9 14  1  0  0  0
 10 19  1  0  0  0
 11 20  1  0  0  0
 13 15  1  0  0  0
 21 12  1  0  0  0
 21 14  1  0  0  0
  1  2  2  0  0  0
  3 11  2  0  0  0
  4  6  2  0  0  0
  5 12  2  0  0  0
  7  9  2  0  0  0
  8 10  2  0  0  0
 13 16  2  0  0  0
 21 17  2  0  0  0
 21 18  2  0  0  0
M  CHG  1  15  -1
M  END
> <rmsd>
0.523786068

$$$$
ZINC35132937


 21 22  0  0  0  0  0  0  0  0999 V2000
    0.7210    2.4667   -2.6984 C   0  0  0  0  0
   -0.1845    2.4554   -1.6375 C   0  0  0  0  0
    1.5682    1.3778   -2.9039 C   0  0  0  0  0
    0.6042    0.2661   -0.9877 C   0  0  0  0  0
   -0.2430    1.3551   -0.7821 C   0  0  0  0  0
    1.5098    0.2775   -2.0486 C   0  0  0  0  0
   -3.1423   -0.4078   -0.2997 C   0  0  0  0  0
   -3.5092   -1.3660    0.6639 C   0  0  0  0  0
   -3.0485   -1.1179   -1.4717 C   0  0  0  0  0
    0.5370   -0.9127   -0.0660 C   0  0  0  0  0
   -3.7495   -1.1567    2.1028 C   0  0  0  0  0
   -2.7062   -0.7176   -2.8471 C   0  0  0  0  0
   -3.6399   -2.5915    0.1489 N   0  0  0  0  0
   -3.3534   -2.4080   -1.1513 N   0  0  0  0  0
   -1.1794    1.3649    0.2990 N   0  0  0  0  0
    2.3847   -0.8202   -2.2788 N   0  0  0  0  0
    3.5108   -0.8230   -1.7280 O   0  0  0  0  0
    2.0032   -1.7523   -3.0253 O   0  0  0  0  0
   -3.6074    1.7126    1.1194 O   0  0  0  0  0
   -3.1156    1.9899   -1.3262 O   0  0  0  0  0
   -2.8618    1.3237   -0.0632 S   0  0  0  0  0
  1  2  1  0  0  0
  3  6  1  0  0  0
  4  5  1  0  0  0
  5 15  1  0  0  0
  6 16  1  0  0  0
  7  8  1  0  0  0
  9 14  1  0  0  0
 10  4  1  0  0  0
 11  8  1  0  0  0
 12  9  1  0  0  0
 14 13  1  0  0  0
 16 17  1  0  0  0
 21  7  1  0  0  0
 21 15  1  0  0  0
  1  3  2  0  0  0
  2  5  2  0  0  0
  4  6  2  0  0  0
  7  9  2  0  0  0
  8 13  2  0  0  0
 16 18  2  0  0  0
 21 19  2  0  0  0
 21 20  2  0  0  0
M  CHG  2  16   1  17  -1
M  END
> <rmsd>
0.379609406

$$$$
ZINC37387565


 21 22  0  0  0  0  0  0  0  0999 V2000
    1.0247    2.8456   -2.2034 C   0  0  0  0  0
   -0.0360    2.7281   -1.3052 C   0  0  0  0  0
    1.0020    0.7742   -0.3349 C   0  0  0  0  0
    2.0740    1.9273   -2.1674 C   0  0  0  0  0
   -0.0474    1.6925   -0.3709 C   0  0  0  0  0
    2.0626    0.8916   -1.2332 C   0  0  0  0  0
   -2.7657   -0.3957   -0.3581 C   0  0  0  0  0
   -3.1657   -1.4098    0.5328 C   0  0  0  0  0
   -2.4107   -1.0654   -1.5034 C   0  0  0  0  0
    3.1958    2.0816   -3.1432 C   0  0  0  0  0
   -3.6487   -1.2597    1.9171 C   0  0  0  0  0
   -1.9072   -0.5998   -2.8068 C   0  0  0  0  0
   -3.0739   -2.6307   -0.0008 N   0  0  0  0  0
   -2.6121   -2.3883   -1.2394 N   0  0  0  0  0
   -1.1341    1.5720    0.5473 N   0  0  0  0  0
    3.1211   -0.0570   -1.1797 N   0  0  0  0  0
    3.0359   -1.0992   -1.8714 O   0  0  0  0  0
    4.1079    0.1773   -0.4429 O   0  0  0  0  0
   -3.6861    1.6281    0.9774 O   0  0  0  0  0
   -2.8532    2.0112   -1.3591 O   0  0  0  0  0
   -2.7254    1.3508   -0.0743 S   0  0  0  0  0
  1  4  1  0  0  0
  2  5  1  0  0  0
  3  6  1  0  0  0
  5 15  1  0  0  0
  6 16  1  0  0  0
  7  8  1  0  0  0
  9 14  1  0  0  0
 10  4  1  0  0  0
 11  8  1  0  0  0
 12  9  1  0  0  0
 14 13  1  0  0  0
 16 17  1  0  0  0
 21  7  1  0  0  0
 21 15  1  0  0  0
  1  2  2  0  0  0
  3  5  2  0  0  0
  4  6  2  0  0  0
  7  9  2  0  0  0
  8 13  2  0  0  0
 16 18  2  0  0  0
 21 19  2  0  0  0
 21 20  2  0  0  0
M  CHG  2  16   1  17  -1
M  END
> <rmsd>
0.692952812

$$$$
ZINC07062272


 21 22  0  0  0  0  0  0  0  0999 V2000
   -2.7142   -3.1128   -0.5931 C   0  0  0  0  0
   -3.1461   -2.5416    0.6040 C   0  0  0  0  0
    2.0798   -0.2051    1.6169 C   0  0  0  0  0
    0.9116    0.5508    1.7146 C   0  0  0  0  0
    2.5619   -0.5854    0.3645 C   0  0  0  0  0
   -2.4992   -2.3082   -1.7120 C   0  0  0  0  0
   -3.3629   -1.1660    0.6821 C   0  0  0  0  0
    0.7073    0.5459   -0.6928 C   0  0  0  0  0
    0.2253    0.9263    0.5597 C   0  0  0  0  0
    1.8756   -0.2099   -0.7904 C   0  0  0  0  0
   -2.7161   -0.9325   -1.6340 C   0  0  0  0  0
   -3.1480   -0.3614   -0.4369 C   0  0  0  0  0
   -0.9561    1.6905    0.6584 N   0  0  0  0  0
   -1.8401    1.9954   -0.4196 N   0  0  0  0  0
    2.3665   -0.5994   -2.0649 N   0  0  0  0  0
    3.4183   -1.2804   -2.1289 O   0  0  0  0  0
    1.7346   -0.2520   -3.0917 O   0  0  0  0  0
   -3.9745    1.6641    0.9813 O   0  0  0  0  0
   -4.1516    1.7719   -1.5248 O   0  0  0  0  0
   -2.5059   -0.1698   -2.7160 F   0  0  0  0  0
   -3.4250    1.3825   -0.3314 S   0  0  0  0  0
  1  2  1  0  0  0
  3  5  1  0  0  0
  4  9  1  0  0  0
  6 11  1  0  0  0
  7 12  1  0  0  0
  8 10  1  0  0  0
  9 13  1  0  0  0
 10 15  1  0  0  0
 11 20  1  0  0  0
 13 14  1  0  0  0
 15 16  1  0  0  0
 21 12  1  0  0  0
 21 14  1  0  0  0
  1  6  2  0  0  0
  2  7  2  0  0  0
  3  4  2  0  0  0
  5 10  2  0  0  0
  8  9  2  0  0  0
 11 12  2  0  0  0
 15 17  2  0  0  0
 21 18  2  0  0  0
 21 19  2  0  0  0
M  CHG  2  15   1  16  -1
M  END
> <rmsd>
0.605430186

$$$$
ZINC21807893


 21 22  0  0  0  0  0  0  0  0999 V2000
   -0.1225    2.4731   -1.5874 C   0  0  0  0  0
    0.8542    2.4988   -2.5829 C   0  0  0  0  0
    0.8572    0.4606   -0.6781 C   0  0  0  0  0
    1.8338    0.4862   -1.6736 C   0  0  0  0  0
   -0.1211    1.4541   -0.6350 C   0  0  0  0  0
    1.8324    1.5055   -2.6260 C   0  0  0  0  0
   -2.9721   -0.4234   -0.3232 C   0  0  0  0  0
   -3.3575   -1.3971    0.6143 C   0  0  0  0  0
   -2.7812   -1.1385   -1.4757 C   0  0  0  0  0
    2.8602   -0.5711   -1.7044 C   0  0  0  0  0
   -3.6947   -1.2085    2.0353 C   0  0  0  0  0
   -2.3777   -0.7829   -2.8428 C   0  0  0  0  0
   -3.4023   -2.6225    0.0839 N   0  0  0  0  0
   -1.1210    1.4281    0.3838 N   0  0  0  0  0
    2.8251   -1.4923   -0.8066 O   0  0  0  0  0
    3.7559   -0.5359   -2.6277 O   0  0  0  0  0
   -3.6093    1.6819    1.0507 O   0  0  0  0  0
   -2.9772    1.9694   -1.3612 O   0  0  0  0  0
   -3.0348   -2.4522   -1.2456 O   0  0  0  0  0
    2.7781    1.5478   -3.6063 O   0  0  0  0  0
   -2.7764    1.3189   -0.0806 S   0  0  0  0  0
  1  5  1  0  0  0
  2  6  1  0  0  0
  3  4  1  0  0  0
  4 10  1  0  0  0
  5 14  1  0  0  0
  6 20  1  0  0  0
  7  8  1  0  0  0
  9 19  1  0  0  0
 10 15  1  0  0  0
 11  8  1  0  0  0
 12  9  1  0  0  0
 13 19  1  0  0  0
 21  7  1  0  0  0
 21 14  1  0  0  0
  1  2  2  0  0  0
  3  5  2  0  0  0
  4  6  2  0  0  0
  7  9  2  0  0  0
  8 13  2  0  0  0
 10 16  2  0  0  0
 21 17  2  0  0  0
 21 18  2  0  0  0
M  CHG  1  15  -1
M  END
> <rmsd>
0.51489377

$$$$
ZINC21807893


 21 22  0  0  0  0  0  0  0  0999 V2000
   -0.1333    2.4616   -1.6016 C   0  0  0  0  0
    0.8399    2.4813   -2.6006 C   0  0  0  0  0
    0.8538    0.4587   -0.6794 C   0  0  0  0  0
    1.8270    0.4783   -1.6783 C   0  0  0  0  0
   -0.1265    1.4504   -0.6410 C   0  0  0  0  0
    1.8201    1.4897   -2.6389 C   0  0  0  0  0
   -2.9723   -0.4307   -0.3043 C   0  0  0  0  0
   -2.7822   -1.1841   -1.4755 C   0  0  0  0  0
   -3.3440   -1.3642    0.6267 C   0  0  0  0  0
    2.8556   -0.5770   -1.7039 C   0  0  0  0  0
   -2.3747   -0.7071   -2.8077 C   0  0  0  0  0
   -3.6969   -1.3009    2.0513 C   0  0  0  0  0
   -3.0179   -2.4853   -1.2855 N   0  0  0  0  0
   -1.1229    1.4305    0.3814 N   0  0  0  0  0
    2.8255   -1.4910   -0.7986 O   0  0  0  0  0
    3.7481   -0.5475   -2.6306 O   0  0  0  0  0
   -3.6095    1.6843    1.0547 O   0  0  0  0  0
   -2.9861    1.9536   -1.3616 O   0  0  0  0  0
   -3.3748   -2.5942    0.0532 O   0  0  0  0  0
    2.7624    1.5261   -3.6228 O   0  0  0  0  0
   -2.7796    1.3139   -0.0765 S   0  0  0  0  0
  1  5  1  0  0  0
  2  6  1  0  0  0
  3  4  1  0  0  0
  4 10  1  0  0  0
  5 14  1  0  0  0
  6 20  1  0  0  0
  7  8  1  0  0  0
  9 19  1  0  0  0
 10 15  1  0  0  0
 11  8  1  0  0  0
 12  9  1  0  0  0
 13 19  1  0  0  0
 21  7  1  0  0  0
 21 14  1  0  0  0
  1  2  2  0  0  0
  3  5  2  0  0  0
  4  6  2  0  0  0
  7  9  2  0  0  0
  8 13  2  0  0  0
 10 16  2  0  0  0
 21 17  2  0  0  0
 21 18  2  0  0  0
M  CHG  1  15  -1
M  END
> <rmsd>
0.52320236

$$$$
ZINC02891110


 23 24  0  0  0  0  0  0  0  0999 V2000
   -6.2412    2.9392   -3.1287 C   0  0  0  0  0
   -3.8214   -3.0395   -0.1566 C   0  0  0  0  0
   -5.2896    2.0177   -3.5656 C   0  0  0  0  0
   -6.2797    3.3192   -1.7871 C   0  0  0  0  0
   -2.9430   -2.4578   -1.0708 C   0  0  0  0  0
   -4.5678   -2.2336    0.7031 C   0  0  0  0  0
   -4.3766    1.4761   -2.6607 C   0  0  0  0  0
   -5.3667    2.7776   -0.8824 C   0  0  0  0  0
   -2.8111   -1.0703   -1.1252 C   0  0  0  0  0
   -4.4358   -0.8461    0.6488 C   0  0  0  0  0
   -4.4151    1.8560   -1.3192 C   0  0  0  0  0
   -3.5574   -0.2644   -0.2654 C   0  0  0  0  0
   -1.9546    1.7074   -0.5521 C   0  0  0  0  0
    3.4031   -0.2863   -1.5790 C   0  0  0  0  0
    2.6075    0.6742   -0.6890 C   0  0  0  0  0
    1.1071    0.4087   -0.5771 C   0  0  0  0  0
    0.3665    1.4238    0.2902 C   0  0  0  0  0
   -3.4121    1.2608   -0.3251 C   0  0  0  0  0
   -1.0450    1.1633    0.3547 N   0  0  0  0  0
    4.6529   -0.0932   -1.5664 O   0  0  0  0  0
   -1.6204    2.4504   -1.4752 O   0  0  0  0  0
    2.7340   -1.1566   -2.2008 O   0  0  0  0  0
   -3.6206    1.8101    0.9919 O   0  0  0  0  0
  1  3  1  0  0  0
  2  5  1  0  0  0
  4  8  1  0  0  0
  6 10  1  0  0  0
  7 11  1  0  0  0
  9 12  1  0  0  0
 13 19  1  0  0  0
 14 20  1  0  0  0
 15 14  1  0  0  0
 15 16  1  0  0  0
 16 17  1  0  0  0
 17 19  1  0  0  0
 18 11  1  0  0  0
 18 12  1  0  0  0
 18 13  1  0  0  0
 18 23  1  0  0  0
  1  4  2  0  0  0
  2  6  2  0  0  0
  3  7  2  0  0  0
  5  9  2  0  0  0
  8 11  2  0  0  0
 10 12  2  0  0  0
 13 21  2  0  0  0
 14 22  2  0  0  0
M  CHG  1  20  -1
M  END
> <rmsd>
0.293794751

$$$$
ZINC01773339


 23 24  0  0  0  0  0  0  0  0999 V2000
    1.2987   -1.0068   -0.8038 C   0  0  0  0  0
    2.4065    1.1062   -1.1850 C   0  0  0  0  0
   -3.5618   -1.4469   -1.5004 C   0  0  0  0  0
   -3.2272   -2.2215    0.7635 C   0  0  0  0  0
    0.2694   -0.3462   -0.1333 C   0  0  0  0  0
    1.3769    1.7669   -0.5145 C   0  0  0  0  0
   -3.8353   -0.1657   -1.0216 C   0  0  0  0  0
   -3.5007   -0.9402    1.2423 C   0  0  0  0  0
    2.3673   -0.2805   -1.3296 C   0  0  0  0  0
   -3.2578   -2.4748   -0.6079 C   0  0  0  0  0
    0.3085    1.0406    0.0113 C   0  0  0  0  0
   -3.8048    0.0877    0.3497 C   0  0  0  0  0
    3.4530   -0.9777   -2.0380 C   0  0  0  0  0
   -0.8555    3.0778    0.9266 C   0  0  0  0  0
   -2.9651   -3.8444   -1.1199 C   0  0  0  0  0
   -2.1342    3.3784    1.6985 C   0  0  0  0  0
   -3.3442    3.6451    0.8082 C   0  0  0  0  0
   -3.7332    2.4338   -0.0326 C   0  0  0  0  0
   -0.7354    1.7107    0.6927 N   0  0  0  0  0
    4.4279   -0.2840   -2.5142 O   0  0  0  0  0
    3.3921   -2.2586   -2.1584 O   0  0  0  0  0
   -0.0664    3.9595    0.6036 O   0  0  0  0  0
   -4.0725    1.3469    0.8190 O   0  0  0  0  0
  1  9  1  0  0  0
  2  6  1  0  0  0
  3 10  1  0  0  0
  4  8  1  0  0  0
  5 11  1  0  0  0
  7 12  1  0  0  0
  9 13  1  0  0  0
 11 19  1  0  0  0
 12 23  1  0  0  0
 13 20  1  0  0  0
 14 19  1  0  0  0
 15 10  1  0  0  0
 16 14  1  0  0  0
 16 17  1  0  0  0
 17 18  1  0  0  0
 18 23  1  0  0  0
  1  5  2  0  0  0
  2  9  2  0  0  0
  3  7  2  0  0  0
  4 10  2  0  0  0
  6 11  2  0  0  0
  8 12  2  0  0  0
 13 21  2  0  0  0
 14 22  2  0  0  0
M  CHG  1  20  -1
M  END
> <rmsd>
0.415248841

$$$$
ZINC00111103


 20 21  0  0  0  0  0  0  0  0999 V2000
    1.6608    2.5855   -1.4290 C   0  0  0  0  0
    0.5134    2.6193   -0.6368 C   0  0  0  0  0
    2.2913    1.3693   -1.6918 C   0  0  0  0  0
    0.6270    0.2208   -0.3698 C   0  0  0  0  0
   -2.9140   -1.1196   -1.4606 C   0  0  0  0  0
   -0.0035    1.4370   -0.1071 C   0  0  0  0  0
    1.7745    0.1870   -1.1622 C   0  0  0  0  0
   -2.8691   -0.4416   -0.2082 C   0  0  0  0  0
   -3.0361   -2.4830   -1.3070 C   0  0  0  0  0
   -2.9590   -1.3130    0.8552 C   0  0  0  0  0
   -3.1148   -3.5241   -2.3544 C   0  0  0  0  0
   -2.9506   -1.0175    2.3058 C   0  0  0  0  0
   -1.1779    1.4720    0.7041 N   0  0  0  0  0
    2.4162   -1.0507   -1.4308 N   0  0  0  0  0
    3.4467   -1.0587   -2.1467 O   0  0  0  0  0
    1.9357   -2.1031   -0.9447 O   0  0  0  0  0
   -3.7465    1.7474    0.8708 O   0  0  0  0  0
   -2.6695    1.8734   -1.3928 O   0  0  0  0  0
   -3.0965   -2.9409    0.3420 S   0  0  0  0  0
   -2.7163    1.3151   -0.0552 S   0  0  0  0  0
  1  3  1  0  0  0
  2  6  1  0  0  0
  4  7  1  0  0  0
  5  8  1  0  0  0
  6 13  1  0  0  0
  7 14  1  0  0  0
  9 19  1  0  0  0
 10 19  1  0  0  0
 11  9  1  0  0  0
 12 10  1  0  0  0
 14 15  1  0  0  0
 20  8  1  0  0  0
 20 13  1  0  0  0
  1  2  2  0  0  0
  3  7  2  0  0  0
  4  6  2  0  0  0
  5  9  2  0  0  0
  8 10  2  0  0  0
 14 16  2  0  0  0
 20 17  2  0  0  0
 20 18  2  0  0  0
M  CHG  2  14   1  15  -1
M  END
> <rmsd>
0.553370595

$$$$
ZINC05121391


 20 21  0  0  0  0  0  0  0  0999 V2000
   -2.9298   -2.3270   -1.6768 C   0  0  0  0  0
   -3.1281   -3.1585   -0.5748 C   0  0  0  0  0
    1.6808    2.5955   -1.4061 C   0  0  0  0  0
    0.5323    2.6327   -0.6155 C   0  0  0  0  0
    2.3018    1.3762   -1.6771 C   0  0  0  0  0
   -2.8036   -0.9494   -1.4974 C   0  0  0  0  0
   -3.2004   -2.6126    0.7068 C   0  0  0  0  0
    0.6257    0.2314   -0.3667 C   0  0  0  0  0
    0.0047    1.4507   -0.0957 C   0  0  0  0  0
    1.7743    0.1942   -1.1574 C   0  0  0  0  0
   -2.8760   -0.4035   -0.2159 C   0  0  0  0  0
   -3.0744   -1.2352    0.8863 C   0  0  0  0  0
   -1.1706    1.4891    0.7138 N   0  0  0  0  0
    2.4062   -1.0467   -1.4345 N   0  0  0  0  0
    3.4379   -1.0576   -2.1489 O   0  0  0  0  0
    1.9163   -2.0988   -0.9572 O   0  0  0  0  0
   -3.7370    1.7844    0.8784 O   0  0  0  0  0
   -2.6553    1.9189   -1.3823 O   0  0  0  0  0
   -2.7090    1.3506   -0.0491 S   0  0  0  0  0
   -3.1719   -0.6104    2.4933 Cl  0  0  0  0  0
  1  2  1  0  0  0
  3  5  1  0  0  0
  4  9  1  0  0  0
  6 11  1  0  0  0
  7 12  1  0  0  0
  8 10  1  0  0  0
  9 13  1  0  0  0
 10 14  1  0  0  0
 12 20  1  0  0  0
 14 15  1  0  0  0
 19 11  1  0  0  0
 19 13  1  0  0  0
  1  6  2  0  0  0
  2  7  2  0  0  0
  3  4  2  0  0  0
  5 10  2  0  0  0
  8  9  2  0  0  0
 11 12  2  0  0  0
 14 16  2  0  0  0
 19 17  2  0  0  0
 19 18  2  0  0  0
M  CHG  2  14   1  15  -1
M  END
> <rmsd>
0.558178306

$$$$
ZINC07053236


 20 21  0  0  0  0  0  0  0  0999 V2000
    1.6942    2.6021   -1.3799 C   0  0  0  0  0
   -3.6172   -2.5273    0.6219 C   0  0  0  0  0
    0.5425    2.6349   -0.5938 C   0  0  0  0  0
    2.3127    1.3837   -1.6604 C   0  0  0  0  0
   -3.4811   -1.1469    0.7684 C   0  0  0  0  0
   -3.1484   -3.1557   -0.5319 C   0  0  0  0  0
    0.6277    0.2309   -0.3685 C   0  0  0  0  0
   -2.4077   -1.0233   -1.3925 C   0  0  0  0  0
    0.0092    1.4494   -0.0880 C   0  0  0  0  0
    1.7795    0.1982   -1.1547 C   0  0  0  0  0
   -2.8765   -0.3948   -0.2388 C   0  0  0  0  0
   -2.5437   -2.4038   -1.5390 C   0  0  0  0  0
   -1.1694    1.4833    0.7168 N   0  0  0  0  0
    2.4089   -1.0418   -1.4414 N   0  0  0  0  0
    3.4436   -1.0488   -2.1515 O   0  0  0  0  0
    1.9138   -2.0971   -0.9767 O   0  0  0  0  0
   -3.7357    1.7847    0.8735 O   0  0  0  0  0
   -2.6439    1.9384   -1.3812 O   0  0  0  0  0
   -2.7050    1.3571   -0.0539 S   0  0  0  0  0
   -1.9660   -3.1791   -2.9625 Cl  0  0  0  0  0
  1  3  1  0  0  0
  2  6  1  0  0  0
  4 10  1  0  0  0
  5 11  1  0  0  0
  7  9  1  0  0  0
  8 12  1  0  0  0
  9 13  1  0  0  0
 10 14  1  0  0  0
 12 20  1  0  0  0
 14 15  1  0  0  0
 19 11  1  0  0  0
 19 13  1  0  0  0
  1  4  2  0  0  0
  2  5  2  0  0  0
  3  9  2  0  0  0
  6 12  2  0  0  0
  7 10  2  0  0  0
  8 11  2  0  0  0
 14 16  2  0  0  0
 19 17  2  0  0  0
 19 18  2  0  0  0
M  CHG  2  14   1  15  -1
M  END
> <rmsd>
0.550536811

$$$$
ZINC90452205


 23 25  0  0  0  0  0  0  0  0999 V2000
    0.9873    3.1619   -2.0879 C   0  0  0  0  0
    1.8468    2.8714   -3.1473 C   0  0  0  0  0
   -3.9673   -2.2149    0.0040 C   0  0  0  0  0
   -4.4302   -1.0328    0.5846 C   0  0  0  0  0
   -2.0543   -1.0488   -0.9496 C   0  0  0  0  0
    1.9919    1.3909   -0.7872 C   0  0  0  0  0
   -2.5274    0.1171   -0.3754 C   0  0  0  0  0
   -2.7880   -2.2228   -0.7596 C   0  0  0  0  0
    1.0599    2.4217   -0.9077 C   0  0  0  0  0
    2.7789    1.8408   -3.0267 C   0  0  0  0  0
    2.8515    1.1005   -1.8467 C   0  0  0  0  0
   -3.6959    0.1179    0.3729 C   0  0  0  0  0
   -3.1380    2.2608    0.1756 C   0  0  0  0  0
   -1.9392    1.4747   -0.3661 C   0  0  0  0  0
   -2.3109   -3.5000   -1.3672 C   0  0  0  0  0
    3.6842    1.5548   -4.1813 C   0  0  0  0  0
    0.8751    3.1025    1.5212 C   0  0  0  0  0
    0.1291    2.7369    0.2404 C   0  0  0  0  0
    3.7938    0.0450   -1.7022 N   0  0  0  0  0
   -0.7919    1.6151    0.5667 N   0  0  0  0  0
    3.4605   -1.1151   -2.0414 O   0  0  0  0  0
    4.9295    0.3059   -1.2401 O   0  0  0  0  0
   -4.0162    1.3501    0.8847 O   0  0  0  0  0
  1  9  1  0  0  0
  2 10  1  0  0  0
  3  8  1  0  0  0
  4 12  1  0  0  0
  5  7  1  0  0  0
  6 11  1  0  0  0
 11 19  1  0  0  0
 12 23  1  0  0  0
 13 14  1  0  0  0
 13 23  1  0  0  0
 14  7  1  0  0  0
 14 20  1  0  0  0
 15  8  1  0  0  0
 16 10  1  0  0  0
 17 18  1  0  0  0
 18  9  1  0  0  0
 18 20  1  0  0  0
 19 21  1  0  0  0
  1  2  2  0  0  0
  3  4  2  0  0  0
  5  8  2  0  0  0
  6  9  2  0  0  0
  7 12  2  0  0  0
 10 11  2  0  0  0
 19 22  2  0  0  0
M  CHG  3  19   1  20   1  21  -1
M  END
> <rmsd>
0.499575824

$$$$
ZINC03566085


 20 21  0  0  0  0  0  0  0  0999 V2000
    1.7007    2.6057   -1.3675 C   0  0  0  0  0
    0.5472    2.6358   -0.5838 C   0  0  0  0  0
    2.3187    1.3881   -1.6525 C   0  0  0  0  0
   -2.4128   -1.0361   -1.3935 C   0  0  0  0  0
   -2.5609   -2.4131   -1.5171 C   0  0  0  0  0
    0.6298    0.2307   -0.3700 C   0  0  0  0  0
   -3.4737   -1.1649    0.7312 C   0  0  0  0  0
    0.0118    1.4483   -0.0850 C   0  0  0  0  0
    1.7832    0.2007   -1.1538 C   0  0  0  0  0
   -2.8752   -0.3924   -0.2511 C   0  0  0  0  0
   -3.1734   -3.0951   -0.4781 C   0  0  0  0  0
   -3.6353   -2.5045    0.6468 N   0  0  0  0  0
   -1.1686    1.4794    0.7174 N   0  0  0  0  0
    2.4122   -1.0385   -1.4452 N   0  0  0  0  0
    3.4485   -1.0429   -2.1529 O   0  0  0  0  0
    1.9151   -2.0956   -0.9867 O   0  0  0  0  0
   -3.7349    1.7824    0.8699 O   0  0  0  0  0
   -2.6381    1.9461   -1.3816 O   0  0  0  0  0
   -2.7026    1.3584   -0.0573 S   0  0  0  0  0
   -3.3983   -4.7950   -0.5442 Cl  0  0  0  0  0
  1  2  1  0  0  0
  3  9  1  0  0  0
  4 10  1  0  0  0
  5 11  1  0  0  0
  6  8  1  0  0  0
  7 12  1  0  0  0
  8 13  1  0  0  0
  9 14  1  0  0  0
 11 20  1  0  0  0
 14 15  1  0  0  0
 19 10  1  0  0  0
 19 13  1  0  0  0
  1  3  2  0  0  0
  2  8  2  0  0  0
  4  5  2  0  0  0
  6  9  2  0  0  0
  7 10  2  0  0  0
 11 12  2  0  0  0
 14 16  2  0  0  0
 19 17  2  0  0  0
 19 18  2  0  0  0
M  CHG  2  14   1  15  -1
M  END
> <rmsd>
0.543215096

$$$$
ZINC03566085


 20 21  0  0  0  0  0  0  0  0999 V2000
    1.6859    2.5975   -1.3942 C   0  0  0  0  0
    0.5359    2.6329   -0.6056 C   0  0  0  0  0
    2.3055    1.3785   -1.6697 C   0  0  0  0  0
   -3.4737   -1.1653    0.7694 C   0  0  0  0  0
   -3.5943   -2.5405    0.6031 C   0  0  0  0  0
    0.6251    0.2303   -0.3678 C   0  0  0  0  0
   -2.4224   -1.0523   -1.3610 C   0  0  0  0  0
    0.0055    1.4493   -0.0924 C   0  0  0  0  0
    1.7751    0.1950   -1.1565 C   0  0  0  0  0
   -2.8778   -0.3998   -0.2268 C   0  0  0  0  0
   -3.1070   -3.0971   -0.5684 C   0  0  0  0  0
   -2.5220   -2.3860   -1.5583 N   0  0  0  0  0
   -1.1713    1.4858    0.7150 N   0  0  0  0  0
    2.4057   -1.0456   -1.4381 N   0  0  0  0  0
    3.4387   -1.0548   -2.1505 O   0  0  0  0  0
    1.9132   -2.0992   -0.9667 O   0  0  0  0  0
   -3.7376    1.7844    0.8760 O   0  0  0  0  0
   -2.6513    1.9277   -1.3820 O   0  0  0  0  0
   -2.7085    1.3533   -0.0515 S   0  0  0  0  0
   -3.2131   -4.7850   -0.8592 Cl  0  0  0  0  0
  1  2  1  0  0  0
  3  9  1  0  0  0
  4 10  1  0  0  0
  5 11  1  0  0  0
  6  8  1  0  0  0
  7 12  1  0  0  0
  8 13  1  0  0  0
  9 14  1  0  0  0
 11 20  1  0  0  0
 14 15  1  0  0  0
 19 10  1  0  0  0
 19 13  1  0  0  0
  1  3  2  0  0  0
  2  8  2  0  0  0
  4  5  2  0  0  0
  6  9  2  0  0  0
  7 10  2  0  0  0
 11 12  2  0  0  0
 14 16  2  0  0  0
 19 17  2  0  0  0
 19 18  2  0  0  0
M  CHG  2  14   1  15  -1
M  END
> <rmsd>
0.557897687

$$$$
ZINC06510596


 21 22  0  0  0  0  0  0  0  0999 V2000
    1.6925    2.6012   -1.3826 C   0  0  0  0  0
    0.5411    2.6345   -0.5960 C   0  0  0  0  0
    2.3112    1.3826   -1.6622 C   0  0  0  0  0
   -2.9401   -2.3504   -1.6552 C   0  0  0  0  0
   -2.8072   -0.9700   -1.5060 C   0  0  0  0  0
    0.6270    0.2308   -0.3685 C   0  0  0  0  0
   -3.2126   -2.5825    0.7342 C   0  0  0  0  0
    0.0083    1.4493   -0.0889 C   0  0  0  0  0
    1.7785    0.1975   -1.1551 C   0  0  0  0  0
   -3.1429   -3.1567   -0.5350 C   0  0  0  0  0
   -3.0796   -1.2020    0.8834 C   0  0  0  0  0
   -2.8770   -0.3957   -0.2367 C   0  0  0  0  0
   -1.1700    1.4837    0.7164 N   0  0  0  0  0
    2.4081   -1.0426   -1.4409 N   0  0  0  0  0
    3.4425   -1.0499   -2.1514 O   0  0  0  0  0
    1.9134   -2.0976   -0.9750 O   0  0  0  0  0
   -3.7362    1.7846    0.8739 O   0  0  0  0  0
   -2.6455    1.9364   -1.3814 O   0  0  0  0  0
   -3.2706   -4.4823   -0.6784 F   0  0  0  0  0
   -3.1467   -0.6621    2.1085 F   0  0  0  0  0
   -2.7058    1.3564   -0.0536 S   0  0  0  0  0
  1  2  1  0  0  0
  3  9  1  0  0  0
  4 10  1  0  0  0
  5 12  1  0  0  0
  6  8  1  0  0  0
  7 11  1  0  0  0
  8 13  1  0  0  0
  9 14  1  0  0  0
 10 19  1  0  0  0
 11 20  1  0  0  0
 14 15  1  0  0  0
 21 12  1  0  0  0
 21 13  1  0  0  0
  1  3  2  0  0  0
  2  8  2  0  0  0
  4  5  2  0  0  0
  6  9  2  0  0  0
  7 10  2  0  0  0
 11 12  2  0  0  0
 14 16  2  0  0  0
 21 17  2  0  0  0
 21 18  2  0  0  0
M  CHG  2  14   1  15  -1
M  END
> <rmsd>
0.552066624

$$$$
ZINC37730504


 20 21  0  0  0  0  0  0  0  0999 V2000
   -0.0523    2.7540   -1.2991 C   0  0  0  0  0
    1.0075    2.8829   -2.1968 C   0  0  0  0  0
    0.9984    0.8017   -0.3390 C   0  0  0  0  0
   -3.1602   -1.4016    0.5306 C   0  0  0  0  0
    2.0581    0.9306   -1.2368 C   0  0  0  0  0
   -0.0569    1.7135   -0.3702 C   0  0  0  0  0
   -2.7645   -0.3888   -0.3636 C   0  0  0  0  0
    2.0627    1.9712   -2.1657 C   0  0  0  0  0
   -2.4110   -1.0604   -1.5084 C   0  0  0  0  0
    3.1560   -0.0531   -1.1729 C   0  0  0  0  0
   -1.9122   -0.5965   -2.8141 C   0  0  0  0  0
   -3.0671   -2.6236   -0.0005 N   0  0  0  0  0
   -2.6091   -2.3830   -1.2408 N   0  0  0  0  0
   -1.1414    1.5827    0.5491 N   0  0  0  0  0
    3.0687   -1.1209   -1.8844 O   0  0  0  0  0
    4.1600    0.1930   -0.4077 O   0  0  0  0  0
   -3.6930    1.6236    0.9833 O   0  0  0  0  0
   -2.8658    2.0226   -1.3525 O   0  0  0  0  0
   -2.7327    1.3564   -0.0711 S   0  0  0  0  0
    3.3579    2.1699   -3.2904 Cl  0  0  0  0  0
  1  6  1  0  0  0
  2  8  1  0  0  0
  3  5  1  0  0  0
  4  7  1  0  0  0
  5 10  1  0  0  0
  6 14  1  0  0  0
  8 20  1  0  0  0
  9 13  1  0  0  0
 10 15  1  0  0  0
 11  9  1  0  0  0
 13 12  1  0  0  0
 19  7  1  0  0  0
 19 14  1  0  0  0
  1  2  2  0  0  0
  3  6  2  0  0  0
  4 12  2  0  0  0
  5  8  2  0  0  0
  7  9  2  0  0  0
 10 16  2  0  0  0
 19 17  2  0  0  0
 19 18  2  0  0  0
M  CHG  1  15  -1
M  END
> <rmsd>
0.691982925

$$$$
ZINC37730504


 20 21  0  0  0  0  0  0  0  0999 V2000
   -0.1194    2.4867   -1.5823 C   0  0  0  0  0
    0.8580    2.5205   -2.5768 C   0  0  0  0  0
    0.8612    0.4683   -0.6871 C   0  0  0  0  0
   -3.3563   -1.3871    0.6067 C   0  0  0  0  0
    1.8386    0.5020   -1.6817 C   0  0  0  0  0
   -0.1178    1.4606   -0.6374 C   0  0  0  0  0
   -2.9687   -0.4194   -0.3394 C   0  0  0  0  0
    1.8370    1.5281   -2.6266 C   0  0  0  0  0
   -2.7780   -1.1302   -1.4992 C   0  0  0  0  0
    2.8575   -0.5651   -1.7014 C   0  0  0  0  0
   -2.3696   -0.7226   -2.8541 C   0  0  0  0  0
   -3.4094   -2.6186    0.0925 N   0  0  0  0  0
   -3.0527   -2.4297   -1.1893 N   0  0  0  0  0
   -1.1179    1.4272    0.3809 N   0  0  0  0  0
    2.6205   -1.6307   -2.3814 O   0  0  0  0  0
    3.9452   -0.3908   -1.0376 O   0  0  0  0  0
   -3.6063    1.6759    1.0495 O   0  0  0  0  0
   -2.9739    1.9808   -1.3602 O   0  0  0  0  0
   -2.7733    1.3210   -0.0843 S   0  0  0  0  0
    3.0322    1.6102   -3.8703 Cl  0  0  0  0  0
  1  6  1  0  0  0
  2  8  1  0  0  0
  3  5  1  0  0  0
  4  7  1  0  0  0
  5 10  1  0  0  0
  6 14  1  0  0  0
  8 20  1  0  0  0
  9 13  1  0  0  0
 10 15  1  0  0  0
 11  9  1  0  0  0
 13 12  1  0  0  0
 19  7  1  0  0  0
 19 14  1  0  0  0
  1  2  2  0  0  0
  3  6  2  0  0  0
  4 12  2  0  0  0
  5  8  2  0  0  0
  7  9  2  0  0  0
 10 16  2  0  0  0
 19 17  2  0  0  0
 19 18  2  0  0  0
M  CHG  1  15  -1
M  END
> <rmsd>
0.513869405

$$$$
ZINC19352272


 22 24  0  0  0  0  0  0  0  0999 V2000
   -2.8917   -2.2884   -0.3446 C   0  0  0  0  0
   -4.1499   -2.0975    0.2213 C   0  0  0  0  0
    1.0939   -2.7421    0.8719 C   0  0  0  0  0
    1.1485   -3.1832   -0.4468 C   0  0  0  0  0
   -2.0442   -1.1984   -0.5455 C   0  0  0  0  0
   -4.5602   -0.8175    0.5910 C   0  0  0  0  0
    1.7377   -1.5634    1.2362 C   0  0  0  0  0
    1.8513   -2.4286   -1.3753 C   0  0  0  0  0
   -2.4454    0.0956   -0.1796 C   0  0  0  0  0
   -3.7084    0.2748    0.4024 C   0  0  0  0  0
    2.4256   -0.8498    0.2651 C   0  0  0  0  0
    0.8316    1.7656    0.2162 C   0  0  0  0  0
   -2.2991    2.5778   -0.3121 C   0  0  0  0  0
   -3.2336    2.5386    0.8892 C   0  0  0  0  0
   -1.5242    1.2643   -0.4138 C   0  0  0  0  0
    1.8244    1.5979    1.3424 C   0  0  0  0  0
    2.4622   -1.2974   -0.9975 N   0  0  0  0  0
   -0.4151    1.2386    0.5120 N   0  0  0  0  0
    3.0982   -0.6369   -1.9031 O   0  0  0  0  0
    1.1414    2.3069   -0.8438 O   0  0  0  0  0
   -4.2057    1.4950    0.7822 O   0  0  0  0  0
    3.2395    0.6456    0.7401 S   0  0  0  0  0
  1  2  1  0  0  0
  3  4  1  0  0  0
  5  9  1  0  0  0
  6 10  1  0  0  0
  7 11  1  0  0  0
  8 17  1  0  0  0
 10 21  1  0  0  0
 11 22  1  0  0  0
 12 18  1  0  0  0
 13 14  1  0  0  0
 13 15  1  0  0  0
 14 21  1  0  0  0
 15  9  1  0  0  0
 15 18  1  0  0  0
 16 12  1  0  0  0
 16 22  1  0  0  0
 17 19  1  0  0  0
  1  5  2  0  0  0
  2  6  2  0  0  0
  3  7  2  0  0  0
  4  8  2  0  0  0
  9 10  2  0  0  0
 11 17  2  0  0  0
 12 20  2  0  0  0
M  CHG  2  17   1  19  -1
M  END
> <rmsd>
0.589470983

$$$$
ZINC89725913


 23 24  0  0  0  0  0  0  0  0999 V2000
    1.0561    3.1688   -2.1628 C   0  0  0  0  0
    2.0097    2.8731   -3.1368 C   0  0  0  0  0
   -4.2843   -2.1426   -0.0309 C   0  0  0  0  0
   -4.4724   -0.9345    0.6405 C   0  0  0  0  0
    1.9615    1.4315   -0.7489 C   0  0  0  0  0
   -2.4083   -1.1904   -1.2187 C   0  0  0  0  0
    1.0320    2.4481   -0.9688 C   0  0  0  0  0
    2.9392    1.8565   -2.9170 C   0  0  0  0  0
   -2.5963    0.0177   -0.5473 C   0  0  0  0  0
    2.9151    1.1357   -1.7230 C   0  0  0  0  0
   -3.2522   -2.2705   -0.9604 C   0  0  0  0  0
   -3.6285    0.1457    0.3823 C   0  0  0  0  0
    3.9468    1.5643   -3.9816 C   0  0  0  0  0
    0.6230    3.1619    1.4237 C   0  0  0  0  0
   -1.9949   -3.5118   -2.5522 C   0  0  0  0  0
   -1.6792    1.1691   -0.8375 C   0  0  0  0  0
    0.0129    2.7647    0.0730 C   0  0  0  0  0
    3.8529    0.0949   -1.4779 N   0  0  0  0  0
   -0.9371    1.6346    0.3558 N   0  0  0  0  0
    3.5645   -1.0745   -1.8259 O   0  0  0  0  0
    4.9400    0.3777   -0.9213 O   0  0  0  0  0
   -3.8270    1.3189    1.0460 O   0  0  0  0  0
   -3.0689   -3.4497   -1.6151 O   0  0  0  0  0
  1  7  1  0  0  0
  2  8  1  0  0  0
  3 11  1  0  0  0
  4 12  1  0  0  0
  5 10  1  0  0  0
  6  9  1  0  0  0
 10 18  1  0  0  0
 11 23  1  0  0  0
 12 22  1  0  0  0
 13  8  1  0  0  0
 14 17  1  0  0  0
 15 23  1  0  0  0
 16  9  1  0  0  0
 16 19  1  0  0  0
 17  7  1  0  0  0
 17 19  1  0  0  0
 18 20  1  0  0  0
  1  2  2  0  0  0
  3  4  2  0  0  0
  5  7  2  0  0  0
  6 11  2  0  0  0
  8 10  2  0  0  0
  9 12  2  0  0  0
 18 21  2  0  0  0
M  CHG  3  18   1  19   1  20  -1
M  END
> <rmsd>
0.432011008

$$$$
ZINC06919713


 22 24  0  0  0  0  0  0  0  0999 V2000
    1.6714    2.5916   -1.4304 C   0  0  0  0  0
   -3.6126   -2.5334    0.6303 C   0  0  0  0  0
    0.5256    2.6304   -0.6358 C   0  0  0  0  0
    2.2967    1.3729   -1.6936 C   0  0  0  0  0
   -3.4790   -1.1492    0.7591 C   0  0  0  0  0
   -2.3849   -1.0066   -1.4099 C   0  0  0  0  0
    0.6306    0.2316   -0.3675 C   0  0  0  0  0
   -3.1405   -3.1332   -0.5250 C   0  0  0  0  0
   -2.5326   -2.3776   -1.5346 C   0  0  0  0  0
    0.0053    1.4504   -0.1043 C   0  0  0  0  0
    1.7763    0.1928   -1.1622 C   0  0  0  0  0
   -2.8698   -0.3913   -0.2537 C   0  0  0  0  0
   -3.1359   -4.5883   -0.8725 C   0  0  0  0  0
   -2.0639   -3.2576   -2.6499 C   0  0  0  0  0
   -2.8806   -4.5317   -2.3863 C   0  0  0  0  0
   -1.1758    1.4907    0.7152 N   0  0  0  0  0
    2.4127   -1.0475   -1.4314 N   0  0  0  0  0
    3.4417   -1.0598   -2.1495 O   0  0  0  0  0
    1.9292   -2.0977   -0.9436 O   0  0  0  0  0
   -3.7344    1.7770    0.8762 O   0  0  0  0  0
   -2.6494    1.9507   -1.3803 O   0  0  0  0  0
   -2.7067    1.3375   -0.0595 S   0  0  0  0  0
  1  3  1  0  0  0
  2  8  1  0  0  0
  4 11  1  0  0  0
  5 12  1  0  0  0
  6  9  1  0  0  0
  7 10  1  0  0  0
 10 16  1  0  0  0
 11 17  1  0  0  0
 13  8  1  0  0  0
 13 15  1  0  0  0
 14  9  1  0  0  0
 14 15  1  0  0  0
 17 18  1  0  0  0
 22 12  1  0  0  0
 22 16  1  0  0  0
  1  4  2  0  0  0
  2  5  2  0  0  0
  3 10  2  0  0  0
  6 12  2  0  0  0
  7 11  2  0  0  0
  8  9  2  0  0  0
 17 19  2  0  0  0
 22 20  2  0  0  0
 22 21  2  0  0  0
M  CHG  2  17   1  18  -1
M  END
> <rmsd>
0.55540663

$$$$
ZINC80939999


 22 23  0  0  0  0  0  0  0  0999 V2000
    0.7103    2.5006   -2.6960 C   0  0  0  0  0
   -3.7410   -2.5296    0.6069 C   0  0  0  0  0
    1.5510    1.4083   -2.9092 C   0  0  0  0  0
   -3.6096   -3.0893   -0.6640 C   0  0  0  0  0
   -0.1899    2.4903   -1.6305 C   0  0  0  0  0
   -3.5136   -1.1664    0.7954 C   0  0  0  0  0
   -3.0231   -0.9226   -1.5576 C   0  0  0  0  0
    1.4915    0.3056   -2.0570 C   0  0  0  0  0
   -3.2506   -2.2859   -1.7462 C   0  0  0  0  0
    0.5913    0.2953   -0.9915 C   0  0  0  0  0
   -0.2494    1.3878   -0.7783 C   0  0  0  0  0
   -3.1547   -0.3629   -0.2868 C   0  0  0  0  0
    2.3908   -0.8366   -2.3039 C   0  0  0  0  0
    0.5276   -0.8880   -0.0771 C   0  0  0  0  0
   -4.4187   -2.8555   -3.8904 C   0  0  0  0  0
   -3.1103   -2.8851   -3.1047 C   0  0  0  0  0
   -1.1804    1.3985    0.3073 N   0  0  0  0  0
    3.5486   -0.8429   -1.7428 O   0  0  0  0  0
    1.9859   -1.7861   -3.0719 O   0  0  0  0  0
   -3.6028    1.7554    1.1408 O   0  0  0  0  0
   -3.1217    2.0377   -1.3062 O   0  0  0  0  0
   -2.8649    1.3666   -0.0465 S   0  0  0  0  0
  1  3  1  0  0  0
  2  6  1  0  0  0
  4  9  1  0  0  0
  5 11  1  0  0  0
  7 12  1  0  0  0
  8 10  1  0  0  0
  8 13  1  0  0  0
 11 17  1  0  0  0
 13 18  1  0  0  0
 14 10  1  0  0  0
 15 16  1  0  0  0
 16  9  1  0  0  0
 22 12  1  0  0  0
 22 17  1  0  0  0
  1  5  2  0  0  0
  2  4  2  0  0  0
  3  8  2  0  0  0
  6 12  2  0  0  0
  7  9  2  0  0  0
 10 11  2  0  0  0
 13 19  2  0  0  0
 22 20  2  0  0  0
 22 21  2  0  0  0
M  CHG  1  18  -1
M  END
> <rmsd>
0.386983991

$$$$
ZINC80939999


 22 23  0  0  0  0  0  0  0  0999 V2000
    1.0387    2.6439   -2.3440 C   0  0  0  0  0
   -3.4975   -2.5685    0.5335 C   0  0  0  0  0
    1.9479    1.5918   -2.4524 C   0  0  0  0  0
   -3.2049   -3.1314   -0.7087 C   0  0  0  0  0
    0.0315    2.5988   -1.3800 C   0  0  0  0  0
   -3.3560   -1.1944    0.7272 C   0  0  0  0  0
   -2.6293   -0.9462   -1.5635 C   0  0  0  0  0
    1.8499    0.4944   -1.5969 C   0  0  0  0  0
   -2.7709   -2.3204   -1.7572 C   0  0  0  0  0
    0.8427    0.4492   -0.6329 C   0  0  0  0  0
   -0.0665    1.5016   -0.5245 C   0  0  0  0  0
   -2.9219   -0.3833   -0.3212 C   0  0  0  0  0
    2.8232   -0.6050   -1.7318 C   0  0  0  0  0
    0.7376   -0.7283    0.2851 C   0  0  0  0  0
   -3.6753   -2.9630   -4.0056 C   0  0  0  0  0
   -2.4583   -2.9231   -3.0851 C   0  0  0  0  0
   -1.1075    1.4761    0.4558 N   0  0  0  0  0
    3.9136   -0.5508   -1.0509 O   0  0  0  0  0
    2.5478   -1.5791   -2.5259 O   0  0  0  0  0
   -3.6191    1.7223    1.0227 O   0  0  0  0  0
   -2.8936    2.0078   -1.3629 O   0  0  0  0  0
   -2.7413    1.3600   -0.0744 S   0  0  0  0  0
  1  3  1  0  0  0
  2  6  1  0  0  0
  4  9  1  0  0  0
  5 11  1  0  0  0
  7 12  1  0  0  0
  8 10  1  0  0  0
  8 13  1  0  0  0
 11 17  1  0  0  0
 13 18  1  0  0  0
 14 10  1  0  0  0
 15 16  1  0  0  0
 16  9  1  0  0  0
 22 12  1  0  0  0
 22 17  1  0  0  0
  1  5  2  0  0  0
  2  4  2  0  0  0
  3  8  2  0  0  0
  6 12  2  0  0  0
  7  9  2  0  0  0
 10 11  2  0  0  0
 13 19  2  0  0  0
 22 20  2  0  0  0
 22 21  2  0  0  0
M  CHG  1  18  -1
M  END
> <rmsd>
0.559356391

$$$$
ZINC80939999


 22 23  0  0  0  0  0  0  0  0999 V2000
    0.7104    2.5000   -2.6963 C   0  0  0  0  0
   -3.2523   -2.2850   -1.7467 C   0  0  0  0  0
    1.5513    1.4077   -2.9093 C   0  0  0  0  0
   -3.6121   -3.0890   -0.6651 C   0  0  0  0  0
   -0.1896    2.4899   -1.6307 C   0  0  0  0  0
   -3.0231   -0.9223   -1.5570 C   0  0  0  0  0
   -3.5135   -1.1672    0.7960 C   0  0  0  0  0
    1.4921    0.3053   -2.0567 C   0  0  0  0  0
   -3.7428   -2.5300    0.6062 C   0  0  0  0  0
    0.5920    0.2952   -0.9911 C   0  0  0  0  0
   -0.2488    1.3876   -0.7781 C   0  0  0  0  0
   -3.1538   -0.3634   -0.2857 C   0  0  0  0  0
    2.3915   -0.8368   -2.3033 C   0  0  0  0  0
    0.5286   -0.8878   -0.0763 C   0  0  0  0  0
   -5.6399   -3.4604    1.9560 C   0  0  0  0  0
   -4.1274   -3.3902    1.7623 C   0  0  0  0  0
   -1.1797    1.3986    0.3075 N   0  0  0  0  0
    3.5494   -0.8427   -1.7424 O   0  0  0  0  0
    1.9867   -1.7866   -3.0710 O   0  0  0  0  0
   -3.6021    1.7553    1.1412 O   0  0  0  0  0
   -3.1213    2.0368   -1.3060 O   0  0  0  0  0
   -2.8643    1.3662   -0.0461 S   0  0  0  0  0
  1  3  1  0  0  0
  2  6  1  0  0  0
  4  9  1  0  0  0
  5 11  1  0  0  0
  7 12  1  0  0  0
  8 10  1  0  0  0
  8 13  1  0  0  0
 11 17  1  0  0  0
 13 18  1  0  0  0
 14 10  1  0  0  0
 15 16  1  0  0  0
 16  9  1  0  0  0
 22 12  1  0  0  0
 22 17  1  0  0  0
  1  5  2  0  0  0
  2  4  2  0  0  0
  3  8  2  0  0  0
  6 12  2  0  0  0
  7  9  2  0  0  0
 10 11  2  0  0  0
 13 19  2  0  0  0
 22 20  2  0  0  0
 22 21  2  0  0  0
M  CHG  1  18  -1
M  END
> <rmsd>
0.387003869

$$$$
ZINC80939999


 22 23  0  0  0  0  0  0  0  0999 V2000
    1.0388    2.6435   -2.3444 C   0  0  0  0  0
   -2.7724   -2.3196   -1.7579 C   0  0  0  0  0
    1.9481    1.5914   -2.4526 C   0  0  0  0  0
   -3.2072   -3.1312   -0.7101 C   0  0  0  0  0
    0.0316    2.5985   -1.3803 C   0  0  0  0  0
   -2.6293   -0.9459   -1.5629 C   0  0  0  0  0
   -3.3558   -1.1953    0.7278 C   0  0  0  0  0
    1.8504    0.4943   -1.5967 C   0  0  0  0  0
   -3.4989   -2.5691    0.5327 C   0  0  0  0  0
    0.8433    0.4493   -0.6326 C   0  0  0  0  0
   -0.0661    1.5015   -0.5244 C   0  0  0  0  0
   -2.9211   -0.3837   -0.3201 C   0  0  0  0  0
    2.8239   -0.6049   -1.7313 C   0  0  0  0  0
    0.7385   -0.7279    0.2859 C   0  0  0  0  0
   -5.4832   -3.5791    1.6856 C   0  0  0  0  0
   -3.9637   -3.4375    1.6527 C   0  0  0  0  0
   -1.1069    1.4763    0.4561 N   0  0  0  0  0
    3.9143   -0.5504   -1.0506 O   0  0  0  0  0
    2.5485   -1.5793   -2.5251 O   0  0  0  0  0
   -3.6185    1.7223    1.0232 O   0  0  0  0  0
   -2.8933    2.0070   -1.3626 O   0  0  0  0  0
   -2.7407    1.3597   -0.0739 S   0  0  0  0  0
  1  3  1  0  0  0
  2  6  1  0  0  0
  4  9  1  0  0  0
  5 11  1  0  0  0
  7 12  1  0  0  0
  8 10  1  0  0  0
  8 13  1  0  0  0
 11 17  1  0  0  0
 13 18  1  0  0  0
 14 10  1  0  0  0
 15 16  1  0  0  0
 16  9  1  0  0  0
 22 12  1  0  0  0
 22 17  1  0  0  0
  1  5  2  0  0  0
  2  4  2  0  0  0
  3  8  2  0  0  0
  6 12  2  0  0  0
  7  9  2  0  0  0
 10 11  2  0  0  0
 13 19  2  0  0  0
 22 20  2  0  0  0
 22 21  2  0  0  0
M  CHG  1  18  -1
M  END
> <rmsd>
0.559022009

$$$$
ZINC06623323


 22 23  0  0  0  0  0  0  0  0999 V2000
    0.8780    2.5121   -2.5627 C   0  0  0  0  0
    1.8465    1.5094   -2.6071 C   0  0  0  0  0
   -2.9102   -2.3114   -1.7701 C   0  0  0  0  0
   -3.5506   -2.5633    0.5459 C   0  0  0  0  0
   -0.1007    2.4930   -1.5689 C   0  0  0  0  0
   -2.7432   -0.9405   -1.5749 C   0  0  0  0  0
   -3.3836   -1.1923    0.7411 C   0  0  0  0  0
    0.8578    0.4681   -0.6642 C   0  0  0  0  0
    1.8364    0.4874   -1.6580 C   0  0  0  0  0
   -3.3140   -3.1228   -0.7098 C   0  0  0  0  0
   -0.1108    1.4709   -0.6197 C   0  0  0  0  0
   -2.9799   -0.3809   -0.3192 C   0  0  0  0  0
    2.8587   -0.5707   -1.7058 C   0  0  0  0  0
   -4.9469   -5.0428   -0.6783 C   0  0  0  0  0
   -2.5348   -5.4293   -0.0558 C   0  0  0  0  0
   -3.4948   -4.5883   -0.9186 C   0  0  0  0  0
   -1.1128    1.4510    0.3970 N   0  0  0  0  0
    2.8275   -1.5028   -0.8177 O   0  0  0  0  0
    3.7505   -0.5292   -2.6338 O   0  0  0  0  0
   -3.6000    1.7258    1.0602 O   0  0  0  0  0
   -2.9606    2.0152   -1.3496 O   0  0  0  0  0
   -2.7683    1.3587   -0.0707 S   0  0  0  0  0
  1  2  1  0  0  0
  3 10  1  0  0  0
  4  7  1  0  0  0
  5 11  1  0  0  0
  6 12  1  0  0  0
  8  9  1  0  0  0
  9 13  1  0  0  0
 11 17  1  0  0  0
 13 18  1  0  0  0
 14 16  1  0  0  0
 15 16  1  0  0  0
 16 10  1  0  0  0
 22 12  1  0  0  0
 22 17  1  0  0  0
  1  5  2  0  0  0
  2  9  2  0  0  0
  3  6  2  0  0  0
  4 10  2  0  0  0
  7 12  2  0  0  0
  8 11  2  0  0  0
 13 19  2  0  0  0
 22 20  2  0  0  0
 22 21  2  0  0  0
M  CHG  1  18  -1
M  END
> <rmsd>
0.519215047

$$$$
ZINC65844471


 22 23  0  0  0  0  0  0  0  0999 V2000
    0.7000    2.4887   -2.7078 C   0  0  0  0  0
    1.5434    1.3973   -2.9156 C   0  0  0  0  0
   -3.6155   -3.0896   -0.6855 C   0  0  0  0  0
   -3.2289   -2.6319    0.5742 C   0  0  0  0  0
   -0.1978    2.4830   -1.6403 C   0  0  0  0  0
   -3.5382   -0.8277   -1.5310 C   0  0  0  0  0
    1.4887    0.3000   -2.0561 C   0  0  0  0  0
   -3.7701   -2.1874   -1.7381 C   0  0  0  0  0
   -2.9970   -1.2722    0.7813 C   0  0  0  0  0
    0.5908    0.2943   -0.9887 C   0  0  0  0  0
   -0.2526    1.3858   -0.7808 C   0  0  0  0  0
   -3.1516   -0.3700   -0.2714 C   0  0  0  0  0
    2.3892   -0.8421   -2.2985 C   0  0  0  0  0
   -4.1839   -2.6775   -3.0848 C   0  0  0  0  0
   -2.5846   -0.8151    2.1424 C   0  0  0  0  0
    0.5326   -0.8835   -0.0665 C   0  0  0  0  0
   -1.1809    1.4009    0.3068 N   0  0  0  0  0
    3.5482   -0.8436   -1.7398 O   0  0  0  0  0
    1.9841   -1.7965   -3.0603 O   0  0  0  0  0
   -3.6026    1.7562    1.1435 O   0  0  0  0  0
   -3.1279    2.0240   -1.3065 O   0  0  0  0  0
   -2.8663    1.3617   -0.0430 S   0  0  0  0  0
  1  2  1  0  0  0
  3  8  1  0  0  0
  4  9  1  0  0  0
  5 11  1  0  0  0
  6 12  1  0  0  0
  7 10  1  0  0  0
  7 13  1  0  0  0
 11 17  1  0  0  0
 13 18  1  0  0  0
 14  8  1  0  0  0
 15  9  1  0  0  0
 16 10  1  0  0  0
 22 12  1  0  0  0
 22 17  1  0  0  0
  1  5  2  0  0  0
  2  7  2  0  0  0
  3  4  2  0  0  0
  6  8  2  0  0  0
  9 12  2  0  0  0
 10 11  2  0  0  0
 13 19  2  0  0  0
 22 20  2  0  0  0
 22 21  2  0  0  0
M  CHG  1  18  -1
M  END
> <rmsd>
0.388653576

$$$$
ZINC65844471


 22 23  0  0  0  0  0  0  0  0999 V2000
    1.0282    2.6350   -2.3579 C   0  0  0  0  0
    1.9399    1.5845   -2.4616 C   0  0  0  0  0
   -3.2067   -3.1317   -0.7325 C   0  0  0  0  0
   -2.9782   -2.6463    0.5550 C   0  0  0  0  0
    0.0234    2.5935   -1.3913 C   0  0  0  0  0
   -3.1480   -0.8752   -1.5937 C   0  0  0  0  0
    1.8467    0.4923   -1.5989 C   0  0  0  0  0
   -3.2915   -2.2462   -1.8070 C   0  0  0  0  0
   -2.8347   -1.2754    0.7683 C   0  0  0  0  0
    0.8419    0.4508   -0.6323 C   0  0  0  0  0
   -0.0699    1.5014   -0.5285 C   0  0  0  0  0
   -2.9196   -0.3897   -0.3062 C   0  0  0  0  0
    2.8213   -0.6063   -1.7303 C   0  0  0  0  0
   -3.5361   -2.7659   -3.1835 C   0  0  0  0  0
   -2.5915   -0.7885    2.1594 C   0  0  0  0  0
    0.7423   -0.7214    0.2933 C   0  0  0  0  0
   -1.1081    1.4794    0.4545 N   0  0  0  0  0
    3.9131   -0.5471   -1.0523 O   0  0  0  0  0
    2.5453   -1.5850   -2.5185 O   0  0  0  0  0
   -3.6191    1.7225    1.0261 O   0  0  0  0  0
   -2.9003    1.9947   -1.3632 O   0  0  0  0  0
   -2.7430    1.3555   -0.0708 S   0  0  0  0  0
  1  2  1  0  0  0
  3  8  1  0  0  0
  4  9  1  0  0  0
  5 11  1  0  0  0
  6 12  1  0  0  0
  7 10  1  0  0  0
  7 13  1  0  0  0
 11 17  1  0  0  0
 13 18  1  0  0  0
 14  8  1  0  0  0
 15  9  1  0  0  0
 16 10  1  0  0  0
 22 12  1  0  0  0
 22 17  1  0  0  0
  1  5  2  0  0  0
  2  7  2  0  0  0
  3  4  2  0  0  0
  6  8  2  0  0  0
  9 12  2  0  0  0
 10 11  2  0  0  0
 13 19  2  0  0  0
 22 20  2  0  0  0
 22 21  2  0  0  0
M  CHG  1  18  -1
M  END
> <rmsd>
0.561801136

$$$$
ZINC65844519


 22 23  0  0  0  0  0  0  0  0999 V2000
    1.0390    2.6452   -2.3426 C   0  0  0  0  0
    1.9486    1.5933   -2.4508 C   0  0  0  0  0
   -2.7715   -2.3201   -1.7575 C   0  0  0  0  0
   -3.4975   -2.5687    0.5333 C   0  0  0  0  0
    0.0316    2.5998   -1.3789 C   0  0  0  0  0
   -2.6293   -0.9462   -1.5634 C   0  0  0  0  0
   -3.3553   -1.1947    0.7276 C   0  0  0  0  0
    1.8506    0.4958   -1.5954 C   0  0  0  0  0
   -3.2057   -3.1314   -0.7092 C   0  0  0  0  0
    0.8431    0.4504   -0.6317 C   0  0  0  0  0
   -0.0665    1.5024   -0.5235 C   0  0  0  0  0
   -2.9211   -0.3835   -0.3209 C   0  0  0  0  0
    2.8230   -0.6042   -1.7313 C   0  0  0  0  0
    0.7384   -0.7276    0.2861 C   0  0  0  0  0
   -4.7582   -4.9742   -1.4017 C   0  0  0  0  0
   -3.3599   -4.6000   -0.9169 C   0  0  0  0  0
   -1.1073    1.4765    0.4567 N   0  0  0  0  0
    3.9132   -0.5520   -1.0502 O   0  0  0  0  0
    2.5468   -1.5772   -2.5266 O   0  0  0  0  0
   -3.6192    1.7217    1.0233 O   0  0  0  0  0
   -2.8935    2.0078   -1.3623 O   0  0  0  0  0
   -2.7411    1.3598   -0.0737 S   0  0  0  0  0
  1  2  1  0  0  0
  3  9  1  0  0  0
  4  7  1  0  0  0
  5 11  1  0  0  0
  6 12  1  0  0  0
  8 10  1  0  0  0
  8 13  1  0  0  0
 11 17  1  0  0  0
 13 18  1  0  0  0
 14 10  1  0  0  0
 15 16  1  0  0  0
 16  9  1  0  0  0
 22 12  1  0  0  0
 22 17  1  0  0  0
  1  5  2  0  0  0
  2  8  2  0  0  0
  3  6  2  0  0  0
  4  9  2  0  0  0
  7 12  2  0  0  0
 10 11  2  0  0  0
 13 19  2  0  0  0
 22 20  2  0  0  0
 22 21  2  0  0  0
M  CHG  1  18  -1
M  END
> <rmsd>
0.559826732

$$$$
ZINC65844519


 22 23  0  0  0  0  0  0  0  0999 V2000
    0.7108    2.5021   -2.6944 C   0  0  0  0  0
    1.5519    1.4100   -2.9074 C   0  0  0  0  0
   -3.2511   -2.2855   -1.7463 C   0  0  0  0  0
   -3.7410   -2.5298    0.6067 C   0  0  0  0  0
   -0.1897    2.4916   -1.6292 C   0  0  0  0  0
   -3.0230   -0.9225   -1.5574 C   0  0  0  0  0
   -3.5129   -1.1667    0.7958 C   0  0  0  0  0
    1.4925    0.3072   -2.0553 C   0  0  0  0  0
   -3.6102   -3.0892   -0.6643 C   0  0  0  0  0
    0.5919    0.2966   -0.9902 C   0  0  0  0  0
   -0.2492    1.3888   -0.7771 C   0  0  0  0  0
   -3.1539   -0.3631   -0.2864 C   0  0  0  0  0
    2.3907   -0.8355   -2.3031 C   0  0  0  0  0
    0.5285   -0.8871   -0.0759 C   0  0  0  0  0
   -5.3145   -4.8476   -1.2022 C   0  0  0  0  0
   -3.8563   -4.5460   -0.8663 C   0  0  0  0  0
   -1.1802    1.3990    0.3083 N   0  0  0  0  0
    3.5483   -0.8436   -1.7416 O   0  0  0  0  0
    1.9851   -1.7838   -3.0721 O   0  0  0  0  0
   -3.6031    1.7548    1.1415 O   0  0  0  0  0
   -3.1217    2.0377   -1.3055 O   0  0  0  0  0
   -2.8648    1.3664   -0.0458 S   0  0  0  0  0
  1  2  1  0  0  0
  3  9  1  0  0  0
  4  7  1  0  0  0
  5 11  1  0  0  0
  6 12  1  0  0  0
  8 10  1  0  0  0
  8 13  1  0  0  0
 11 17  1  0  0  0
 13 18  1  0  0  0
 14 10  1  0  0  0
 15 16  1  0  0  0
 16  9  1  0  0  0
 22 12  1  0  0  0
 22 17  1  0  0  0
  1  5  2  0  0  0
  2  8  2  0  0  0
  3  6  2  0  0  0
  4  9  2  0  0  0
  7 12  2  0  0  0
 10 11  2  0  0  0
 13 19  2  0  0  0
 22 20  2  0  0  0
 22 21  2  0  0  0
M  CHG  1  18  -1
M  END
> <rmsd>
0.38735342

$$$$
ZINC65844471


 22 23  0  0  0  0  0  0  0  0999 V2000
    1.0483    2.6556   -2.3300 C   0  0  0  0  0
    1.9566    1.6030   -2.4418 C   0  0  0  0  0
   -3.2235   -3.1293   -0.6850 C   0  0  0  0  0
   -2.7850   -2.3352   -1.7445 C   0  0  0  0  0
    0.0385    2.6064   -1.3690 C   0  0  0  0  0
   -3.3595   -1.1726    0.7255 C   0  0  0  0  0
    1.8550    0.5010   -1.5926 C   0  0  0  0  0
   -3.5107   -2.5480    0.5500 C   0  0  0  0  0
   -2.6337   -0.9598   -1.5691 C   0  0  0  0  0
    0.8452    0.4518   -0.6316 C   0  0  0  0  0
   -0.0631    1.5045   -0.5198 C   0  0  0  0  0
   -2.9210   -0.3784   -0.3341 C   0  0  0  0  0
    2.8261   -0.5997   -1.7323 C   0  0  0  0  0
   -3.9791   -3.3979    1.6829 C   0  0  0  0  0
   -2.1619   -0.1381   -2.7239 C   0  0  0  0  0
    0.7366   -0.7310    0.2796 C   0  0  0  0  0
   -1.1063    1.4747    0.4578 N   0  0  0  0  0
    3.9148   -0.5527   -1.0482 O   0  0  0  0  0
    2.5504   -1.5679   -2.5334 O   0  0  0  0  0
   -3.6192    1.7205    1.0199 O   0  0  0  0  0
   -2.8875    2.0185   -1.3624 O   0  0  0  0  0
   -2.7391    1.3633   -0.0770 S   0  0  0  0  0
  1  2  1  0  0  0
  3  8  1  0  0  0
  4  9  1  0  0  0
  5 11  1  0  0  0
  6 12  1  0  0  0
  7 10  1  0  0  0
  7 13  1  0  0  0
 11 17  1  0  0  0
 13 18  1  0  0  0
 14  8  1  0  0  0
 15  9  1  0  0  0
 16 10  1  0  0  0
 22 12  1  0  0  0
 22 17  1  0  0  0
  1  5  2  0  0  0
  2  7  2  0  0  0
  3  4  2  0  0  0
  6  8  2  0  0  0
  9 12  2  0  0  0
 10 11  2  0  0  0
 13 19  2  0  0  0
 22 20  2  0  0  0
 22 21  2  0  0  0
M  CHG  1  18  -1
M  END
> <rmsd>
0.553362489

$$$$
ZINC65844471


 22 23  0  0  0  0  0  0  0  0999 V2000
    0.7204    2.5154   -2.6828 C   0  0  0  0  0
    1.5603    1.4232   -2.9002 C   0  0  0  0  0
   -3.6238   -3.0861   -0.6409 C   0  0  0  0  0
   -3.2631   -2.2987   -1.7343 C   0  0  0  0  0
   -0.1825    2.5002   -1.6197 C   0  0  0  0  0
   -3.5152   -1.1447    0.7930 C   0  0  0  0  0
    1.4971    0.3156   -2.0547 C   0  0  0  0  0
   -3.7499   -2.5090    0.6228 C   0  0  0  0  0
   -3.0284   -0.9344   -1.5640 C   0  0  0  0  0
    0.5941    0.3003   -0.9917 C   0  0  0  0  0
   -0.2458    1.3926   -0.7742 C   0  0  0  0  0
   -3.1544   -0.3573   -0.3004 C   0  0  0  0  0
    2.3940   -0.8271   -2.3070 C   0  0  0  0  0
   -4.1351   -3.3517    1.7918 C   0  0  0  0  0
   -2.6433   -0.1198   -2.7555 C   0  0  0  0  0
    0.5266   -0.8886   -0.0845 C   0  0  0  0  0
   -1.1793    1.3981    0.3091 N   0  0  0  0  0
    3.5503   -0.8404   -1.7430 O   0  0  0  0  0
    1.9886   -1.7703   -3.0825 O   0  0  0  0  0
   -3.6034    1.7530    1.1387 O   0  0  0  0  0
   -3.1160    2.0493   -1.3055 O   0  0  0  0  0
   -2.8631    1.3703   -0.0491 S   0  0  0  0  0
  1  2  1  0  0  0
  3  8  1  0  0  0
  4  9  1  0  0  0
  5 11  1  0  0  0
  6 12  1  0  0  0
  7 10  1  0  0  0
  7 13  1  0  0  0
 11 17  1  0  0  0
 13 18  1  0  0  0
 14  8  1  0  0  0
 15  9  1  0  0  0
 16 10  1  0  0  0
 22 12  1  0  0  0
 22 17  1  0  0  0
  1  5  2  0  0  0
  2  7  2  0  0  0
  3  4  2  0  0  0
  6  8  2  0  0  0
  9 12  2  0  0  0
 10 11  2  0  0  0
 13 19  2  0  0  0
 22 20  2  0  0  0
 22 21  2  0  0  0
M  CHG  1  18  -1
M  END
> <rmsd>
0.382165134

$$$$
ZINC41842036


 22 23  0  0  0  0  0  0  0  0999 V2000
   -3.5873   -2.8676    0.3347 C   0  0  0  0  0
   -2.2645   -2.9070   -0.1060 C   0  0  0  0  0
   -4.5100   -2.0372   -0.3016 C   0  0  0  0  0
   -2.7870   -1.2856   -1.8192 C   0  0  0  0  0
   -1.8642   -2.1160   -1.1830 C   0  0  0  0  0
   -4.1098   -1.2463   -1.3785 C   0  0  0  0  0
   -0.4957   -2.1565   -1.6379 C   0  0  0  0  0
    1.6152   -1.7011   -1.8505 C   0  0  0  0  0
   -0.3283    0.9423   -0.6818 C   0  0  0  0  0
   -3.2443    2.5497    0.3479 C   0  0  0  0  0
   -5.0971   -0.3590   -2.0585 C   0  0  0  0  0
   -1.2548    3.9477    0.9567 C   0  0  0  0  0
    0.3383   -0.3090   -0.1513 C   0  0  0  0  0
   -1.7722    2.8198    0.0779 C   0  0  0  0  0
   -0.0076   -2.9652   -2.5513 N   0  0  0  0  0
    1.3355   -2.6753   -2.6866 N   0  0  0  0  0
    0.4913   -1.3433   -1.1698 N   0  0  0  0  0
   -4.0813    3.3015   -0.4494 N   0  0  0  0  0
   -1.0407    1.6025    0.3128 N   0  0  0  0  0
   -0.2419    1.3121   -1.8497 O   0  0  0  0  0
   -3.6488    1.7743    1.2108 O   0  0  0  0  0
    3.1379   -0.9850   -1.6341 S   0  0  0  0  0
  1  2  1  0  0  0
  3  6  1  0  0  0
  4  5  1  0  0  0
  5  7  1  0  0  0
  7 17  1  0  0  0
  8 16  1  0  0  0
  8 17  1  0  0  0
  9 19  1  0  0  0
 10 18  1  0  0  0
 11  6  1  0  0  0
 12 14  1  0  0  0
 13  9  1  0  0  0
 13 17  1  0  0  0
 14 10  1  0  0  0
 14 19  1  0  0  0
 15 16  1  0  0  0
  1  3  2  0  0  0
  2  5  2  0  0  0
  4  6  2  0  0  0
  7 15  2  0  0  0
  8 22  2  0  0  0
  9 20  2  0  0  0
 10 21  2  0  0  0
M  CHG  1  22  -1
M  END
> <rmsd>
0.656051099

$$$$
ZINC41842036


 22 23  0  0  0  0  0  0  0  0999 V2000
   -4.4243   -1.4637   -1.1118 C   0  0  0  0  0
   -3.1681   -1.5030   -1.7170 C   0  0  0  0  0
   -4.5634   -1.8184    0.2300 C   0  0  0  0  0
   -2.1902   -2.2518    0.3615 C   0  0  0  0  0
   -2.0511   -1.8971   -0.9804 C   0  0  0  0  0
   -3.4463   -2.2125    0.9666 C   0  0  0  0  0
   -0.7522   -1.9384   -1.6070 C   0  0  0  0  0
    1.3349   -1.5345   -2.0426 C   0  0  0  0  0
   -0.3292    1.0457   -0.3980 C   0  0  0  0  0
   -3.0442    2.6121    0.3901 C   0  0  0  0  0
   -3.5959   -2.5913    2.4014 C   0  0  0  0  0
   -1.4422    3.6202    2.0334 C   0  0  0  0  0
    0.3406   -0.2726   -0.0741 C   0  0  0  0  0
   -1.5828    2.8871    0.7085 C   0  0  0  0  0
   -0.4171   -2.6701   -2.6455 N   0  0  0  0  0
    0.9109   -2.4131   -2.9227 N   0  0  0  0  0
    0.3205   -1.2076   -1.1948 N   0  0  0  0  0
   -3.6368    3.6305   -0.3262 N   0  0  0  0  0
   -0.8834    1.6292    0.7355 N   0  0  0  0  0
   -0.3707    1.5241   -1.5283 O   0  0  0  0  0
   -3.6470    1.6086    0.7636 O   0  0  0  0  0
    2.9033   -0.8935   -1.9559 S   0  0  0  0  0
  1  2  1  0  0  0
  3  6  1  0  0  0
  4  5  1  0  0  0
  5  7  1  0  0  0
  7 17  1  0  0  0
  8 16  1  0  0  0
  8 17  1  0  0  0
  9 19  1  0  0  0
 10 18  1  0  0  0
 11  6  1  0  0  0
 12 14  1  0  0  0
 13  9  1  0  0  0
 13 17  1  0  0  0
 14 10  1  0  0  0
 14 19  1  0  0  0
 15 16  1  0  0  0
  1  3  2  0  0  0
  2  5  2  0  0  0
  4  6  2  0  0  0
  7 15  2  0  0  0
  8 22  2  0  0  0
  9 20  2  0  0  0
 10 21  2  0  0  0
M  CHG  1  22  -1
M  END
> <rmsd>
0.500853956

$$$$
ZINC07053252


 19 20  0  0  0  0  0  0  0  0999 V2000
    1.7290    2.6149   -1.2945 C   0  0  0  0  0
    0.5654    2.6276   -0.5258 C   0  0  0  0  0
    2.3457    1.4033   -1.6066 C   0  0  0  0  0
   -2.8387   -1.1956   -1.4459 C   0  0  0  0  0
   -3.0386   -2.5696   -1.1259 C   0  0  0  0  0
    0.6348    0.2169   -0.3807 C   0  0  0  0  0
    0.0182    1.4286   -0.0688 C   0  0  0  0  0
    1.7986    0.2043   -1.1496 C   0  0  0  0  0
   -2.8741   -0.3932   -0.3267 C   0  0  0  0  0
   -3.2188   -2.7650    0.2259 C   0  0  0  0  0
   -1.1728    1.4420    0.7184 N   0  0  0  0  0
    2.4262   -1.0288   -1.4685 N   0  0  0  0  0
    3.4718   -1.0175   -2.1621 O   0  0  0  0  0
    1.9185   -2.0964   -1.0474 O   0  0  0  0  0
   -3.7397    1.7522    0.8453 O   0  0  0  0  0
   -2.6118    1.9759   -1.3857 O   0  0  0  0  0
   -3.1472   -1.2959    1.1027 S   0  0  0  0  0
   -2.6967    1.3504   -0.0800 S   0  0  0  0  0
   -3.4903   -4.2449    1.0465 Cl  0  0  0  0  0
  1  2  1  0  0  0
  3  8  1  0  0  0
  4  5  1  0  0  0
  6  7  1  0  0  0
  7 11  1  0  0  0
  8 12  1  0  0  0
  9 17  1  0  0  0
 10 17  1  0  0  0
 10 19  1  0  0  0
 12 13  1  0  0  0
 18  9  1  0  0  0
 18 11  1  0  0  0
  1  3  2  0  0  0
  2  7  2  0  0  0
  4  9  2  0  0  0
  5 10  2  0  0  0
  6  8  2  0  0  0
 12 14  2  0  0  0
 18 15  2  0  0  0
 18 16  2  0  0  0
M  CHG  2  12   1  13  -1
M  END
> <rmsd>
0.522475362

$$$$
ZINC78403684


 22 24  0  0  0  0  0  0  0  0999 V2000
    1.6714    2.5927   -1.4334 C   0  0  0  0  0
   -3.6247   -2.5336    0.6264 C   0  0  0  0  0
    0.5255    2.6312   -0.6391 C   0  0  0  0  0
    2.2983    1.3743   -1.6947 C   0  0  0  0  0
   -3.4754   -1.1505    0.7619 C   0  0  0  0  0
   -2.4062   -1.0056   -1.4176 C   0  0  0  0  0
    0.6331    0.2330   -0.3674 C   0  0  0  0  0
   -2.5527   -2.3765   -1.5326 C   0  0  0  0  0
   -3.1387   -3.1390   -0.5191 C   0  0  0  0  0
    0.0064    1.4514   -0.1061 C   0  0  0  0  0
    1.7791    0.1944   -1.1617 C   0  0  0  0  0
   -2.8676   -0.3924   -0.2517 C   0  0  0  0  0
   -2.2050   -3.2660   -2.6809 C   0  0  0  0  0
   -2.4203   -4.6644   -2.0628 C   0  0  0  0  0
   -3.2377   -4.4842   -0.8692 N   0  0  0  0  0
   -1.1741    1.4917    0.7143 N   0  0  0  0  0
    2.4162   -1.0458   -1.4302 N   0  0  0  0  0
    3.4446   -1.0580   -2.1490 O   0  0  0  0  0
    1.9335   -2.0958   -0.9412 O   0  0  0  0  0
   -3.7328    1.7762    0.8770 O   0  0  0  0  0
   -2.6497    1.9488   -1.3804 O   0  0  0  0  0
   -2.7056    1.3366   -0.0591 S   0  0  0  0  0
  1  3  1  0  0  0
  2  9  1  0  0  0
  4 11  1  0  0  0
  5 12  1  0  0  0
  6  8  1  0  0  0
  7 10  1  0  0  0
  9 15  1  0  0  0
 10 16  1  0  0  0
 11 17  1  0  0  0
 13  8  1  0  0  0
 13 14  1  0  0  0
 14 15  1  0  0  0
 17 18  1  0  0  0
 22 12  1  0  0  0
 22 16  1  0  0  0
  1  4  2  0  0  0
  2  5  2  0  0  0
  3 10  2  0  0  0
  6 12  2  0  0  0
  7 11  2  0  0  0
  8  9  2  0  0  0
 17 19  2  0  0  0
 22 20  2  0  0  0
 22 21  2  0  0  0
M  CHG  2  17   1  18  -1
M  END
> <rmsd>
0.55101192

$$$$
ZINC65844488


 22 23  0  0  0  0  0  0  0  0999 V2000
   -3.2318   -3.1299   -0.6929 C   0  0  0  0  0
   -3.8850   -2.4875    0.3588 C   0  0  0  0  0
    1.0443    2.6508   -2.3369 C   0  0  0  0  0
    1.9537    1.5987   -2.4466 C   0  0  0  0  0
    0.0356    2.6031   -1.3746 C   0  0  0  0  0
   -2.4222   -2.3985   -1.5619 C   0  0  0  0  0
   -3.7287   -1.1134    0.5414 C   0  0  0  0  0
    1.8543    0.4992   -1.5941 C   0  0  0  0  0
    0.8456    0.4516   -0.6319 C   0  0  0  0  0
   -0.0638    1.5036   -0.5221 C   0  0  0  0  0
   -2.2660   -1.0245   -1.3794 C   0  0  0  0  0
   -2.9192   -0.3819   -0.3277 C   0  0  0  0  0
    2.8264   -0.6008   -1.7317 C   0  0  0  0  0
    0.7395   -0.7287    0.2828 C   0  0  0  0  0
   -0.8435   -1.0712   -3.2847 C   0  0  0  0  0
   -1.1059    1.4755    0.4567 N   0  0  0  0  0
    3.9159   -0.5505   -1.0490 O   0  0  0  0  0
    2.5511   -1.5716   -2.5298 O   0  0  0  0  0
   -3.6184    1.7200    1.0209 O   0  0  0  0  0
   -2.8897    2.0119   -1.3630 O   0  0  0  0  0
   -1.4701   -0.3296   -2.2403 O   0  0  0  0  0
   -2.7391    1.3607   -0.0760 S   0  0  0  0  0
  1  2  1  0  0  0
  3  4  1  0  0  0
  5 10  1  0  0  0
  6 11  1  0  0  0
  7 12  1  0  0  0
  8  9  1  0  0  0
  8 13  1  0  0  0
 10 16  1  0  0  0
 11 21  1  0  0  0
 13 17  1  0  0  0
 14  9  1  0  0  0
 15 21  1  0  0  0
 22 12  1  0  0  0
 22 16  1  0  0  0
  1  6  2  0  0  0
  2  7  2  0  0  0
  3  5  2  0  0  0
  4  8  2  0  0  0
  9 10  2  0  0  0
 11 12  2  0  0  0
 13 18  2  0  0  0
 22 19  2  0  0  0
 22 20  2  0  0  0
M  CHG  1  17  -1
M  END
> <rmsd>
0.552338779

$$$$
ZINC65844488


 22 23  0  0  0  0  0  0  0  0999 V2000
   -3.6337   -3.0862   -0.6475 C   0  0  0  0  0
   -4.1398   -2.4283    0.4733 C   0  0  0  0  0
    0.7164    2.5097   -2.6889 C   0  0  0  0  0
    1.5573    1.4178   -2.9042 C   0  0  0  0  0
   -0.1854    2.4962   -1.6249 C   0  0  0  0  0
   -2.8868   -2.3817   -1.5918 C   0  0  0  0  0
   -3.8991   -1.0657    0.6501 C   0  0  0  0  0
    1.4964    0.3126   -2.0555 C   0  0  0  0  0
    0.5946    0.2991   -0.9914 C   0  0  0  0  0
   -0.2464    1.3910   -0.7761 C   0  0  0  0  0
   -2.6462   -1.0192   -1.4151 C   0  0  0  0  0
   -3.1524   -0.3611   -0.2941 C   0  0  0  0  0
    2.3944   -0.8298   -2.3055 C   0  0  0  0  0
    0.5296   -0.8873   -0.0808 C   0  0  0  0  0
   -1.4381   -1.1064   -3.4617 C   0  0  0  0  0
   -1.1787    1.3984    0.3081 N   0  0  0  0  0
    3.5514   -0.8400   -1.7426 O   0  0  0  0  0
    1.9895   -1.7757   -3.0780 O   0  0  0  0  0
   -3.6025    1.7526    1.1394 O   0  0  0  0  0
   -3.1180    2.0426   -1.3061 O   0  0  0  0  0
   -1.9138   -0.3506   -2.3501 O   0  0  0  0  0
   -2.8629    1.3675   -0.0481 S   0  0  0  0  0
  1  2  1  0  0  0
  3  4  1  0  0  0
  5 10  1  0  0  0
  6 11  1  0  0  0
  7 12  1  0  0  0
  8  9  1  0  0  0
  8 13  1  0  0  0
 10 16  1  0  0  0
 11 21  1  0  0  0
 13 17  1  0  0  0
 14  9  1  0  0  0
 15 21  1  0  0  0
 22 12  1  0  0  0
 22 16  1  0  0  0
  1  6  2  0  0  0
  2  7  2  0  0  0
  3  5  2  0  0  0
  4  8  2  0  0  0
  9 10  2  0  0  0
 11 12  2  0  0  0
 13 18  2  0  0  0
 22 19  2  0  0  0
 22 20  2  0  0  0
M  CHG  1  17  -1
M  END
> <rmsd>
0.381657571

$$$$
ZINC65844447


 22 23  0  0  0  0  0  0  0  0999 V2000
    0.7103    2.5015   -2.6951 C   0  0  0  0  0
    1.5515    1.4093   -2.9081 C   0  0  0  0  0
   -0.1901    2.4909   -1.6298 C   0  0  0  0  0
   -3.7411   -2.5304    0.6063 C   0  0  0  0  0
   -3.2522   -2.2856   -1.7469 C   0  0  0  0  0
   -3.5126   -1.1675    0.7956 C   0  0  0  0  0
   -3.0237   -0.9226   -1.5576 C   0  0  0  0  0
    1.4921    0.3067   -2.0559 C   0  0  0  0  0
    0.5917    0.2962   -0.9906 C   0  0  0  0  0
   -0.2494    1.3884   -0.7776 C   0  0  0  0  0
   -3.6109   -3.0895   -0.6650 C   0  0  0  0  0
   -3.1540   -0.3636   -0.2863 C   0  0  0  0  0
    2.3904   -0.8360   -2.3036 C   0  0  0  0  0
    0.5285   -0.8874   -0.0763 C   0  0  0  0  0
   -4.1978   -5.1825    0.2997 C   0  0  0  0  0
   -1.1803    1.3987    0.3079 N   0  0  0  0  0
    3.5481   -0.8440   -1.7422 O   0  0  0  0  0
    1.9848   -1.7845   -3.0726 O   0  0  0  0  0
   -3.6031    1.7544    1.1413 O   0  0  0  0  0
   -3.1220    2.0370   -1.3057 O   0  0  0  0  0
   -3.8339   -4.4193   -0.8496 O   0  0  0  0  0
   -2.8650    1.3659   -0.0460 S   0  0  0  0  0
  1  2  1  0  0  0
  3 10  1  0  0  0
  4 11  1  0  0  0
  5  7  1  0  0  0
  6 12  1  0  0  0
  8  9  1  0  0  0
  8 13  1  0  0  0
 10 16  1  0  0  0
 11 21  1  0  0  0
 13 17  1  0  0  0
 14  9  1  0  0  0
 15 21  1  0  0  0
 22 12  1  0  0  0
 22 16  1  0  0  0
  1  3  2  0  0  0
  2  8  2  0  0  0
  4  6  2  0  0  0
  5 11  2  0  0  0
  7 12  2  0  0  0
  9 10  2  0  0  0
 13 18  2  0  0  0
 22 19  2  0  0  0
 22 20  2  0  0  0
M  CHG  1  17  -1
M  END
> <rmsd>
0.387135595

$$$$
ZINC65844447


 22 23  0  0  0  0  0  0  0  0999 V2000
    1.0388    2.6442   -2.3433 C   0  0  0  0  0
    1.9483    1.5921   -2.4513 C   0  0  0  0  0
    0.0314    2.5989   -1.3796 C   0  0  0  0  0
   -3.4977   -2.5693    0.5332 C   0  0  0  0  0
   -2.7726   -2.3204   -1.7579 C   0  0  0  0  0
   -3.3551   -1.1955    0.7276 C   0  0  0  0  0
   -2.6301   -0.9464   -1.5635 C   0  0  0  0  0
    1.8503    0.4949   -1.5957 C   0  0  0  0  0
    0.8429    0.4496   -0.6320 C   0  0  0  0  0
   -0.0666    1.5017   -0.5239 C   0  0  0  0  0
   -3.2065   -3.1318   -0.7096 C   0  0  0  0  0
   -2.9213   -0.3840   -0.3207 C   0  0  0  0  0
    2.8226   -0.6052   -1.7315 C   0  0  0  0  0
    0.7383   -0.7282    0.2860 C   0  0  0  0  0
   -3.7939   -5.2427    0.2148 C   0  0  0  0  0
   -1.1074    1.4760    0.4563 N   0  0  0  0  0
    3.9129   -0.5528   -1.0504 O   0  0  0  0  0
    2.5465   -1.5783   -2.5266 O   0  0  0  0  0
   -3.6193    1.7214    1.0231 O   0  0  0  0  0
   -2.8937    2.0069   -1.3626 O   0  0  0  0  0
   -3.3458   -4.4722   -0.8993 O   0  0  0  0  0
   -2.7412    1.3593   -0.0739 S   0  0  0  0  0
  1  2  1  0  0  0
  3 10  1  0  0  0
  4 11  1  0  0  0
  5  7  1  0  0  0
  6 12  1  0  0  0
  8  9  1  0  0  0
  8 13  1  0  0  0
 10 16  1  0  0  0
 11 21  1  0  0  0
 13 17  1  0  0  0
 14  9  1  0  0  0
 15 21  1  0  0  0
 22 12  1  0  0  0
 22 16  1  0  0  0
  1  3  2  0  0  0
  2  8  2  0  0  0
  4  6  2  0  0  0
  5 11  2  0  0  0
  7 12  2  0  0  0
  9 10  2  0  0  0
 13 18  2  0  0  0
 22 19  2  0  0  0
 22 20  2  0  0  0
M  CHG  1  17  -1
M  END
> <rmsd>
0.559650064

$$$$
ZINC03226359


 22 23  0  0  0  0  0  0  0  0999 V2000
    0.8783    2.5109   -2.5627 C   0  0  0  0  0
    1.8466    1.5080   -2.6071 C   0  0  0  0  0
   -0.1004    2.4920   -1.5690 C   0  0  0  0  0
   -2.9094   -2.3112   -1.7706 C   0  0  0  0  0
   -3.5491   -2.5644    0.5454 C   0  0  0  0  0
   -2.7433   -0.9402   -1.5748 C   0  0  0  0  0
   -3.3829   -1.1935    0.7412 C   0  0  0  0  0
    0.8577    0.4671   -0.6641 C   0  0  0  0  0
    1.8364    0.4861   -1.6579 C   0  0  0  0  0
   -0.1106    1.4700   -0.6196 C   0  0  0  0  0
   -3.3124   -3.1233   -0.7105 C   0  0  0  0  0
   -2.9800   -0.3813   -0.3190 C   0  0  0  0  0
    2.8585   -0.5722   -1.7055 C   0  0  0  0  0
   -4.6698   -6.1663   -2.0836 C   0  0  0  0  0
   -3.8679   -4.8881   -2.2047 C   0  0  0  0  0
   -1.1127    1.4504    0.3971 N   0  0  0  0  0
    2.8273   -1.5042   -0.8173 O   0  0  0  0  0
    3.7503   -0.5308   -2.6336 O   0  0  0  0  0
   -3.5998    1.7257    1.0603 O   0  0  0  0  0
   -2.9604    2.0146   -1.3495 O   0  0  0  0  0
   -3.4743   -4.4611   -0.9015 O   0  0  0  0  0
   -2.7682    1.3583   -0.0706 S   0  0  0  0  0
  1  2  1  0  0  0
  3 10  1  0  0  0
  4 11  1  0  0  0
  5  7  1  0  0  0
  6 12  1  0  0  0
  8  9  1  0  0  0
  9 13  1  0  0  0
 10 16  1  0  0  0
 11 21  1  0  0  0
 13 17  1  0  0  0
 14 15  1  0  0  0
 15 21  1  0  0  0
 22 12  1  0  0  0
 22 16  1  0  0  0
  1  3  2  0  0  0
  2  9  2  0  0  0
  4  6  2  0  0  0
  5 11  2  0  0  0
  7 12  2  0  0  0
  8 10  2  0  0  0
 13 18  2  0  0  0
 22 19  2  0  0  0
 22 20  2  0  0  0
M  CHG  1  17  -1
M  END
> <rmsd>
0.51970768

$$$$
ZINC00073705


 22 23  0  0  0  0  0  0  0  0999 V2000
   -2.9085   -2.3088   -1.7747 C   0  0  0  0  0
   -3.5445   -2.5642    0.5421 C   0  0  0  0  0
   -0.1040    2.4984   -1.5727 C   0  0  0  0  0
    0.8729    2.5204   -2.5680 C   0  0  0  0  0
   -2.7426   -0.9378   -1.5781 C   0  0  0  0  0
   -3.3785   -1.1932    0.7388 C   0  0  0  0  0
    0.8589    0.4738   -0.6723 C   0  0  0  0  0
    1.8358    0.4958   -1.6676 C   0  0  0  0  0
   -3.3095   -3.1220   -0.7146 C   0  0  0  0  0
   -0.1110    1.4752   -0.6248 C   0  0  0  0  0
    1.8428    1.5191   -2.6155 C   0  0  0  0  0
   -2.9776   -0.3801   -0.3214 C   0  0  0  0  0
    2.8534   -0.5698   -1.7029 C   0  0  0  0  0
   -4.9101   -4.9426   -1.3552 C   0  0  0  0  0
   -3.4890   -4.5873   -0.9250 C   0  0  0  0  0
   -1.1113    1.4529    0.3939 N   0  0  0  0  0
    2.8105   -1.4949   -0.8092 O   0  0  0  0  0
    3.7494   -0.5380   -2.6262 O   0  0  0  0  0
   -3.5975    1.7243    1.0618 O   0  0  0  0  0
   -2.9628    2.0173   -1.3487 O   0  0  0  0  0
    2.7889    1.5580   -3.5955 O   0  0  0  0  0
   -2.7675    1.3594   -0.0711 S   0  0  0  0  0
  1  9  1  0  0  0
  2  6  1  0  0  0
  3 10  1  0  0  0
  4 11  1  0  0  0
  5 12  1  0  0  0
  7  8  1  0  0  0
  8 13  1  0  0  0
 10 16  1  0  0  0
 11 21  1  0  0  0
 13 17  1  0  0  0
 14 15  1  0  0  0
 15  9  1  0  0  0
 22 12  1  0  0  0
 22 16  1  0  0  0
  1  5  2  0  0  0
  2  9  2  0  0  0
  3  4  2  0  0  0
  6 12  2  0  0  0
  7 10  2  0  0  0
  8 11  2  0  0  0
 13 18  2  0  0  0
 22 19  2  0  0  0
 22 20  2  0  0  0
M  CHG  1  17  -1
M  END
> <rmsd>
0.52325213

$$$$
ZINC53944082


 22 23  0  0  0  0  0  0  0  0999 V2000
    0.8862    2.5205   -2.5540 C   0  0  0  0  0
    1.8546    1.5176   -2.6001 C   0  0  0  0  0
   -3.5608   -2.5476    0.5595 C   0  0  0  0  0
   -0.0949    2.4976   -1.5628 C   0  0  0  0  0
   -3.3862   -1.1758    0.7406 C   0  0  0  0  0
    0.8605    0.4689   -0.6639 C   0  0  0  0  0
   -2.9224   -2.3228   -1.7598 C   0  0  0  0  0
    1.8417    0.4918   -1.6552 C   0  0  0  0  0
   -3.3289   -3.1213   -0.6907 C   0  0  0  0  0
   -0.1078    1.4718   -0.6177 C   0  0  0  0  0
   -2.7479   -0.9508   -1.5788 C   0  0  0  0  0
   -2.9798   -0.3772   -0.3285 C   0  0  0  0  0
    2.8634   -0.5667   -1.7052 C   0  0  0  0  0
   -3.5152   -4.5882   -0.8839 C   0  0  0  0  0
   -2.1373   -0.8633   -3.8755 C   0  0  0  0  0
   -1.1111    1.4491    0.3976 N   0  0  0  0  0
    2.8300   -1.5025   -0.8212 O   0  0  0  0  0
    3.7571   -0.5219   -2.6313 O   0  0  0  0  0
   -3.5988    1.7247    1.0588 O   0  0  0  0  0
   -2.9560    2.0230   -1.3489 O   0  0  0  0  0
   -2.3502   -0.1898   -2.6366 O   0  0  0  0  0
   -2.7662    1.3610   -0.0726 S   0  0  0  0  0
  1  2  1  0  0  0
  3  9  1  0  0  0
  4 10  1  0  0  0
  5 12  1  0  0  0
  6  8  1  0  0  0
  7 11  1  0  0  0
  8 13  1  0  0  0
 10 16  1  0  0  0
 11 21  1  0  0  0
 13 17  1  0  0  0
 14  9  1  0  0  0
 15 21  1  0  0  0
 22 12  1  0  0  0
 22 16  1  0  0  0
  1  4  2  0  0  0
  2  8  2  0  0  0
  3  5  2  0  0  0
  6 10  2  0  0  0
  7  9  2  0  0  0
 11 12  2  0  0  0
 13 18  2  0  0  0
 22 19  2  0  0  0
 22 20  2  0  0  0
M  CHG  1  17  -1
M  END
> <rmsd>
0.513422132

$$$$
ZINC91054582


 22 23  0  0  0  0  0  0  0  0999 V2000
    0.7159    2.4534   -2.7350 C   0  0  0  0  0
   -3.7200   -2.5361    0.5942 C   0  0  0  0  0
   -3.2288   -2.2858   -1.7580 C   0  0  0  0  0
    1.5533    1.3541   -2.9249 C   0  0  0  0  0
   -3.4950   -1.1729    0.7863 C   0  0  0  0  0
   -3.0038   -0.9226   -1.5661 C   0  0  0  0  0
   -3.5868   -3.0925   -0.6779 C   0  0  0  0  0
   -0.1836    2.4692   -1.6691 C   0  0  0  0  0
    0.5916    0.2862   -0.9827 C   0  0  0  0  0
   -0.2458    1.3856   -0.7929 C   0  0  0  0  0
    1.4911    0.2705   -2.0487 C   0  0  0  0  0
   -3.1370   -0.3662   -0.2938 C   0  0  0  0  0
   -3.8266   -4.5501   -0.8835 C   0  0  0  0  0
   -1.0680    3.6602   -1.4909 C   0  0  0  0  0
    0.5224   -0.8751   -0.0393 C   0  0  0  0  0
   -1.1737    1.4051    0.3056 N   0  0  0  0  0
    2.3568   -0.8377   -2.2633 N   0  0  0  0  0
    3.4861   -0.8380   -1.7194 O   0  0  0  0  0
    1.9643   -1.7807   -2.9899 O   0  0  0  0  0
   -3.5910    1.7476    1.1386 O   0  0  0  0  0
   -3.1152    2.0364   -1.3088 O   0  0  0  0  0
   -2.8574    1.3404   -0.0541 S   0  0  0  0  0
  1  4  1  0  0  0
  2  7  1  0  0  0
  3  6  1  0  0  0
  5 12  1  0  0  0
  8 10  1  0  0  0
  9 11  1  0  0  0
 10 16  1  0  0  0
 11 17  1  0  0  0
 13  7  1  0  0  0
 14  8  1  0  0  0
 15  9  1  0  0  0
 17 18  1  0  0  0
 22 12  1  0  0  0
 22 16  1  0  0  0
  1  8  2  0  0  0
  2  5  2  0  0  0
  3  7  2  0  0  0
  4 11  2  0  0  0
  6 12  2  0  0  0
  9 10  2  0  0  0
 17 19  2  0  0  0
 22 20  2  0  0  0
 22 21  2  0  0  0
M  CHG  2  17   1  18  -1
M  END
> <rmsd>
0.401881546

$$$$
ZINC14257027


 22 23  0  0  0  0  0  0  0  0999 V2000
    0.9980    2.8192   -2.2602 C   0  0  0  0  0
   -2.4294   -2.2436   -1.8154 C   0  0  0  0  0
   -3.2493   -2.5901    0.4306 C   0  0  0  0  0
   -0.0515    2.7209   -1.3467 C   0  0  0  0  0
   -2.3872   -0.8682   -1.5880 C   0  0  0  0  0
   -3.2072   -1.2145    0.6581 C   0  0  0  0  0
    1.0010    0.7905   -0.3452 C   0  0  0  0  0
   -2.8605   -3.1046   -0.8062 C   0  0  0  0  0
    2.0489    1.9029   -2.2163 C   0  0  0  0  0
   -0.0500    1.7066   -0.3891 C   0  0  0  0  0
    2.0503    0.8887   -1.2588 C   0  0  0  0  0
   -2.7761   -0.3535   -0.3512 C   0  0  0  0  0
    3.1584    2.0366   -3.2090 C   0  0  0  0  0
   -4.2528   -5.0279   -1.6117 C   0  0  0  0  0
   -2.9076   -4.5751   -1.0497 C   0  0  0  0  0
   -1.1330    1.6050    0.5516 N   0  0  0  0  0
    3.1107   -0.0573   -1.1971 N   0  0  0  0  0
    3.0185   -1.1148   -1.8639 O   0  0  0  0  0
    4.1062    0.1946   -0.4778 O   0  0  0  0  0
   -3.6726    1.6708    0.9994 O   0  0  0  0  0
   -2.8590    2.0572   -1.3432 O   0  0  0  0  0
   -2.7239    1.3681   -0.0657 S   0  0  0  0  0
  1  9  1  0  0  0
  2  8  1  0  0  0
  3  6  1  0  0  0
  4 10  1  0  0  0
  5 12  1  0  0  0
  7 11  1  0  0  0
 10 16  1  0  0  0
 11 17  1  0  0  0
 13  9  1  0  0  0
 14 15  1  0  0  0
 15  8  1  0  0  0
 17 18  1  0  0  0
 22 12  1  0  0  0
 22 16  1  0  0  0
  1  4  2  0  0  0
  2  5  2  0  0  0
  3  8  2  0  0  0
  6 12  2  0  0  0
  7 10  2  0  0  0
  9 11  2  0  0  0
 17 19  2  0  0  0
 22 20  2  0  0  0
 22 21  2  0  0  0
M  CHG  2  17   1  18  -1
M  END
> <rmsd>
0.71111393

$$$$
ZINC00245832


 22 23  0  0  0  0  0  0  0  0999 V2000
    1.6752    2.5915   -1.4269 C   0  0  0  0  0
    0.5290    2.6312   -0.6330 C   0  0  0  0  0
    2.2988    1.3721   -1.6911 C   0  0  0  0  0
   -3.1388   -2.3277   -1.6667 C   0  0  0  0  0
   -2.9961   -2.6010    0.7295 C   0  0  0  0  0
    0.6300    0.2319   -0.3675 C   0  0  0  0  0
   -3.1333   -3.1546   -0.5435 C   0  0  0  0  0
   -3.0071   -0.9471   -1.5171 C   0  0  0  0  0
   -2.8645   -1.2204    0.8792 C   0  0  0  0  0
    0.0064    1.4514   -0.1033 C   0  0  0  0  0
    1.7761    0.1923   -1.1614 C   0  0  0  0  0
   -2.8700   -0.3934   -0.2441 C   0  0  0  0  0
   -3.2751   -4.6308   -0.7034 C   0  0  0  0  0
   -3.0186   -0.0932   -2.7434 C   0  0  0  0  0
   -2.7200   -0.6631    2.2582 C   0  0  0  0  0
   -1.1752    1.4927    0.7155 N   0  0  0  0  0
    2.4107   -1.0488   -1.4317 N   0  0  0  0  0
    3.4402   -1.0620   -2.1491 O   0  0  0  0  0
    1.9251   -2.0988   -0.9454 O   0  0  0  0  0
   -3.7337    1.7795    0.8777 O   0  0  0  0  0
   -2.6507    1.9439   -1.3805 O   0  0  0  0  0
   -2.7062    1.3433   -0.0564 S   0  0  0  0  0
  1  3  1  0  0  0
  2 10  1  0  0  0
  4  7  1  0  0  0
  5  9  1  0  0  0
  6 11  1  0  0  0
  8 12  1  0  0  0
 10 16  1  0  0  0
 11 17  1  0  0  0
 13  7  1  0  0  0
 14  8  1  0  0  0
 15  9  1  0  0  0
 17 18  1  0  0  0
 22 12  1  0  0  0
 22 16  1  0  0  0
  1  2  2  0  0  0
  3 11  2  0  0  0
  4  8  2  0  0  0
  5  7  2  0  0  0
  6 10  2  0  0  0
  9 12  2  0  0  0
 17 19  2  0  0  0
 22 20  2  0  0  0
 22 21  2  0  0  0
M  CHG  2  17   1  18  -1
M  END
> <rmsd>
0.55820173

$$$$
ZINC05224074


 22 23  0  0  0  0  0  0  0  0999 V2000
    1.6659    2.5893   -1.4417 C   0  0  0  0  0
   -3.5999   -2.5305    0.6093 C   0  0  0  0  0
   -2.5248   -2.3960   -1.5500 C   0  0  0  0  0
    0.5218    2.6302   -0.6449 C   0  0  0  0  0
    2.2921    1.3701   -1.7011 C   0  0  0  0  0
   -3.4715   -1.1498    0.7594 C   0  0  0  0  0
   -2.3965   -1.0151   -1.4001 C   0  0  0  0  0
    0.6300    0.2327   -0.3666 C   0  0  0  0  0
   -3.1264   -3.1538   -0.5453 C   0  0  0  0  0
    0.0038    1.4519   -0.1073 C   0  0  0  0  0
    1.7740    0.1919   -1.1635 C   0  0  0  0  0
   -2.8698   -0.3920   -0.2454 C   0  0  0  0  0
   -3.2618   -4.6106   -0.7033 C   0  0  0  0  0
   -1.1756    1.4944    0.7146 N   0  0  0  0  0
    2.4112   -1.0490   -1.4288 N   0  0  0  0  0
   -2.8167   -5.1615   -1.7791 O   0  0  0  0  0
    3.4387   -1.0633   -2.1490 O   0  0  0  0  0
   -3.8210   -5.2871    0.2391 O   0  0  0  0  0
    1.9298   -2.0977   -0.9356 O   0  0  0  0  0
   -3.7341    1.7792    0.8791 O   0  0  0  0  0
   -2.6532    1.9466   -1.3798 O   0  0  0  0  0
   -2.7078    1.3362   -0.0571 S   0  0  0  0  0
  1  4  1  0  0  0
  2  9  1  0  0  0
  3  7  1  0  0  0
  5 11  1  0  0  0
  6 12  1  0  0  0
  8 10  1  0  0  0
  9 13  1  0  0  0
 10 14  1  0  0  0
 11 15  1  0  0  0
 13 16  1  0  0  0
 15 17  1  0  0  0
 22 12  1  0  0  0
 22 14  1  0  0  0
  1  5  2  0  0  0
  2  6  2  0  0  0
  3  9  2  0  0  0
  4 10  2  0  0  0
  7 12  2  0  0  0
  8 11  2  0  0  0
 13 18  2  0  0  0
 15 19  2  0  0  0
 22 20  2  0  0  0
 22 21  2  0  0  0
M  CHG  3  15   1  16  -1  17  -1
M  END
> <rmsd>
0.560157299

$$$$
ZINC00341280


 22 23  0  0  0  0  0  0  0  0999 V2000
   -3.6024   -2.5301    0.6108 C   0  0  0  0  0
    1.6652    2.5891   -1.4422 C   0  0  0  0  0
   -3.1316   -3.1540   -0.5446 C   0  0  0  0  0
    0.5211    2.6300   -0.6454 C   0  0  0  0  0
    2.2915    1.3699   -1.7013 C   0  0  0  0  0
   -3.4716   -1.1495    0.7606 C   0  0  0  0  0
   -2.3992   -1.0166   -1.4003 C   0  0  0  0  0
    0.6297    0.2326   -0.3665 C   0  0  0  0  0
   -2.5300   -2.3972   -1.5500 C   0  0  0  0  0
    0.0034    1.4518   -0.1075 C   0  0  0  0  0
    1.7738    0.1916   -1.1634 C   0  0  0  0  0
   -2.8700   -0.3927   -0.2449 C   0  0  0  0  0
   -2.0322   -3.0560   -2.7685 C   0  0  0  0  0
   -1.1760    1.4943    0.7144 N   0  0  0  0  0
    2.4111   -1.0491   -1.4283 N   0  0  0  0  0
   -1.4809   -2.3345   -3.6820 O   0  0  0  0  0
    3.4387   -1.0634   -2.1486 O   0  0  0  0  0
   -2.1644   -4.3321   -2.8813 O   0  0  0  0  0
    1.9299   -2.0976   -0.9348 O   0  0  0  0  0
   -3.7346    1.7788    0.8790 O   0  0  0  0  0
   -2.6538    1.9456   -1.3801 O   0  0  0  0  0
   -2.7083    1.3356   -0.0572 S   0  0  0  0  0
  1  3  1  0  0  0
  2  5  1  0  0  0
  4 10  1  0  0  0
  6 12  1  0  0  0
  7  9  1  0  0  0
  8 11  1  0  0  0
  9 13  1  0  0  0
 10 14  1  0  0  0
 11 15  1  0  0  0
 13 16  1  0  0  0
 15 17  1  0  0  0
 22 12  1  0  0  0
 22 14  1  0  0  0
  1  6  2  0  0  0
  2  4  2  0  0  0
  3  9  2  0  0  0
  5 11  2  0  0  0
  7 12  2  0  0  0
  8 10  2  0  0  0
 13 18  2  0  0  0
 15 19  2  0  0  0
 22 20  2  0  0  0
 22 21  2  0  0  0
M  CHG  3  15   1  16  -1  17  -1
M  END
> <rmsd>
0.558869421

$$$$
ZINC07357438


 22 23  0  0  0  0  0  0  0  0999 V2000
   -2.4316   -2.2432   -1.8168 C   0  0  0  0  0
   -3.2490   -2.5902    0.4301 C   0  0  0  0  0
   -0.0529    2.7212   -1.3496 C   0  0  0  0  0
    0.9963    2.8206   -2.2631 C   0  0  0  0  0
   -2.3891   -0.8678   -1.5891 C   0  0  0  0  0
   -3.2066   -1.2147    0.6578 C   0  0  0  0  0
    1.0012    0.7915   -0.3487 C   0  0  0  0  0
   -2.8616   -3.1045   -0.8073 C   0  0  0  0  0
   -0.0505    1.7066   -0.3922 C   0  0  0  0  0
    2.0482    1.9055   -2.2195 C   0  0  0  0  0
    2.0506    0.8908   -1.2622 C   0  0  0  0  0
   -2.7766   -0.3534   -0.3517 C   0  0  0  0  0
   -4.2548   -5.0275   -1.6117 C   0  0  0  0  0
   -2.9090   -4.5748   -1.0511 C   0  0  0  0  0
    3.0995    2.0282   -3.1561 N   0  0  0  0  0
   -1.1325    1.6048    0.5497 N   0  0  0  0  0
    3.1106   -0.0565   -1.1968 N   0  0  0  0  0
    3.0184   -1.1143   -1.8625 O   0  0  0  0  0
    4.1040    0.1961   -0.4758 O   0  0  0  0  0
   -3.6715    1.6706    1.0004 O   0  0  0  0  0
   -2.8606    2.0576   -1.3431 O   0  0  0  0  0
   -2.7241    1.3681   -0.0659 S   0  0  0  0  0
  1  8  1  0  0  0
  2  6  1  0  0  0
  3  9  1  0  0  0
  4 10  1  0  0  0
  5 12  1  0  0  0
  7 11  1  0  0  0
  9 16  1  0  0  0
 10 15  1  0  0  0
 11 17  1  0  0  0
 13 14  1  0  0  0
 14  8  1  0  0  0
 17 18  1  0  0  0
 22 12  1  0  0  0
 22 16  1  0  0  0
  1  5  2  0  0  0
  2  8  2  0  0  0
  3  4  2  0  0  0
  6 12  2  0  0  0
  7  9  2  0  0  0
 10 11  2  0  0  0
 17 19  2  0  0  0
 22 20  2  0  0  0
 22 21  2  0  0  0
M  CHG  2  17   1  18  -1
M  END
> <rmsd>
0.710577607

$$$$
ZINC00073699


 22 23  0  0  0  0  0  0  0  0999 V2000
   -0.1043    2.4974   -1.5726 C   0  0  0  0  0
    0.8725    2.5193   -2.5680 C   0  0  0  0  0
   -3.5443   -2.5652    0.5425 C   0  0  0  0  0
   -2.9094   -2.3093   -1.7745 C   0  0  0  0  0
   -3.3781   -1.1944    0.7394 C   0  0  0  0  0
   -2.7432   -0.9384   -1.5776 C   0  0  0  0  0
    0.8588    0.4730   -0.6719 C   0  0  0  0  0
    1.8357    0.4949   -1.6673 C   0  0  0  0  0
   -0.1112    1.4744   -0.6245 C   0  0  0  0  0
   -3.3099   -3.1227   -0.7144 C   0  0  0  0  0
    1.8425    1.5181   -2.6154 C   0  0  0  0  0
   -2.9776   -0.3810   -0.3206 C   0  0  0  0  0
    2.8533   -0.5706   -1.7025 C   0  0  0  0  0
   -3.8840   -5.2329    0.2200 C   0  0  0  0  0
   -1.1114    1.4523    0.3942 N   0  0  0  0  0
    2.8105   -1.4955   -0.8086 O   0  0  0  0  0
    3.7493   -0.5390   -2.6258 O   0  0  0  0  0
   -3.5975    1.7237    1.0623 O   0  0  0  0  0
   -2.9630    2.0162   -1.3484 O   0  0  0  0  0
    2.7886    1.5569   -3.5955 O   0  0  0  0  0
   -3.4724   -4.4602   -0.9066 O   0  0  0  0  0
   -2.7676    1.3586   -0.0706 S   0  0  0  0  0
  1  9  1  0  0  0
  2 11  1  0  0  0
  3 10  1  0  0  0
  4  6  1  0  0  0
  5 12  1  0  0  0
  7  8  1  0  0  0
  8 13  1  0  0  0
  9 15  1  0  0  0
 10 21  1  0  0  0
 11 20  1  0  0  0
 13 16  1  0  0  0
 14 21  1  0  0  0
 22 12  1  0  0  0
 22 15  1  0  0  0
  1  2  2  0  0  0
  3  5  2  0  0  0
  4 10  2  0  0  0
  6 12  2  0  0  0
  7  9  2  0  0  0
  8 11  2  0  0  0
 13 17  2  0  0  0
 22 18  2  0  0  0
 22 19  2  0  0  0
M  CHG  1  16  -1
M  END
> <rmsd>
0.523449063

$$$$
ZINC24433352


 22 23  0  0  0  0  0  0  0  0999 V2000
    1.9448    1.6037   -2.4671 C   0  0  0  0  0
   -2.7629   -2.3068   -1.7783 C   0  0  0  0  0
   -3.4670   -2.5740    0.5173 C   0  0  0  0  0
    1.0401    2.6603   -2.3630 C   0  0  0  0  0
   -2.6285   -0.9331   -1.5772 C   0  0  0  0  0
   -3.3327   -1.2003    0.7185 C   0  0  0  0  0
    0.8315    0.4712   -0.6463 C   0  0  0  0  0
    1.8404    0.5092   -1.6088 C   0  0  0  0  0
   -3.1822   -3.1273   -0.7311 C   0  0  0  0  0
   -0.0732    1.5278   -0.5423 C   0  0  0  0  0
    0.0311    2.6224   -1.4007 C   0  0  0  0  0
   -2.9133   -0.3798   -0.3288 C   0  0  0  0  0
    2.7950   -0.6054   -1.7187 C   0  0  0  0  0
   -4.7279   -4.9769   -1.4211 C   0  0  0  0  0
   -3.3281   -4.5957   -0.9463 C   0  0  0  0  0
   -1.1047    1.4872    0.4441 N   0  0  0  0  0
    2.6773   -1.6043   -0.9141 O   0  0  0  0  0
    3.7173   -0.5457   -2.6159 O   0  0  0  0  0
   -3.6153    1.7128    1.0330 O   0  0  0  0  0
   -2.9101    2.0175   -1.3564 O   0  0  0  0  0
   -0.8336    3.6428   -1.3095 F   0  0  0  0  0
   -2.7433    1.3632   -0.0729 S   0  0  0  0  0
  1  8  1  0  0  0
  2  9  1  0  0  0
  3  6  1  0  0  0
  4 11  1  0  0  0
  5 12  1  0  0  0
  7 10  1  0  0  0
  8 13  1  0  0  0
 10 16  1  0  0  0
 11 21  1  0  0  0
 13 17  1  0  0  0
 14 15  1  0  0  0
 15  9  1  0  0  0
 22 12  1  0  0  0
 22 16  1  0  0  0
  1  4  2  0  0  0
  2  5  2  0  0  0
  3  9  2  0  0  0
  6 12  2  0  0  0
  7  8  2  0  0  0
 10 11  2  0  0  0
 13 18  2  0  0  0
 22 19  2  0  0  0
 22 20  2  0  0  0
M  CHG  1  17  -1
M  END
> <rmsd>
0.576558053

$$$$
ZINC65844579


 22 23  0  0  0  0  0  0  0  0999 V2000
    1.0278    2.6338   -2.3591 C   0  0  0  0  0
    1.9395    1.5831   -2.4626 C   0  0  0  0  0
   -2.9776   -2.6469    0.5547 C   0  0  0  0  0
    0.0232    2.5927   -1.3923 C   0  0  0  0  0
   -3.2054   -3.1319   -0.7331 C   0  0  0  0  0
   -3.1473   -0.8749   -1.5932 C   0  0  0  0  0
    1.8464    0.4915   -1.5993 C   0  0  0  0  0
   -2.8347   -1.2760    0.7687 C   0  0  0  0  0
    0.8418    0.4504   -0.6326 C   0  0  0  0  0
   -0.0699    1.5011   -0.5291 C   0  0  0  0  0
   -3.2903   -2.2458   -1.8070 C   0  0  0  0  0
   -2.9196   -0.3899   -0.3052 C   0  0  0  0  0
    2.8209   -0.6072   -1.7304 C   0  0  0  0  0
   -2.5912   -0.7896    2.1599 C   0  0  0  0  0
    0.7424   -0.7215    0.2936 C   0  0  0  0  0
   -1.1080    1.4795    0.4542 N   0  0  0  0  0
    3.9129   -0.5477   -1.0527 O   0  0  0  0  0
    2.5448   -1.5863   -2.5182 O   0  0  0  0  0
   -3.6188    1.7229    1.0263 O   0  0  0  0  0
   -2.9005    1.9940   -1.3632 O   0  0  0  0  0
   -3.5090   -2.7116   -3.0438 F   0  0  0  0  0
   -2.7430    1.3554   -0.0707 S   0  0  0  0  0
  1  2  1  0  0  0
  3  8  1  0  0  0
  4 10  1  0  0  0
  5 11  1  0  0  0
  6 12  1  0  0  0
  7  9  1  0  0  0
  7 13  1  0  0  0
 10 16  1  0  0  0
 11 21  1  0  0  0
 13 17  1  0  0  0
 14  8  1  0  0  0
 15  9  1  0  0  0
 22 12  1  0  0  0
 22 16  1  0  0  0
  1  4  2  0  0  0
  2  7  2  0  0  0
  3  5  2  0  0  0
  6 11  2  0  0  0
  8 12  2  0  0  0
  9 10  2  0  0  0
 13 18  2  0  0  0
 22 19  2  0  0  0
 22 20  2  0  0  0
M  CHG  1  17  -1
M  END
> <rmsd>
0.562499762

$$$$
ZINC65844579


 22 23  0  0  0  0  0  0  0  0999 V2000
    0.6993    2.4877   -2.7091 C   0  0  0  0  0
    1.5427    1.3961   -2.9168 C   0  0  0  0  0
   -3.2281   -2.6326    0.5738 C   0  0  0  0  0
   -0.1983    2.4823   -1.6414 C   0  0  0  0  0
   -3.6142   -3.0898   -0.6862 C   0  0  0  0  0
   -3.5374   -0.8274   -1.5306 C   0  0  0  0  0
    1.4883    0.2994   -2.0567 C   0  0  0  0  0
   -2.9968   -1.2728    0.7817 C   0  0  0  0  0
    0.5907    0.2939   -0.9891 C   0  0  0  0  0
   -0.2527    1.3855   -0.7814 C   0  0  0  0  0
   -3.7688   -2.1872   -1.7383 C   0  0  0  0  0
   -3.1515   -0.3702   -0.2704 C   0  0  0  0  0
    2.3887   -0.8428   -2.2989 C   0  0  0  0  0
   -2.5841   -0.8163    2.1428 C   0  0  0  0  0
    0.5328   -0.8834   -0.0664 C   0  0  0  0  0
   -1.1808    1.4010    0.3064 N   0  0  0  0  0
    3.5479   -0.8440   -1.7405 O   0  0  0  0  0
    1.9836   -1.7976   -3.0602 O   0  0  0  0  0
   -3.6022    1.7565    1.1436 O   0  0  0  0  0
   -3.1282    2.0233   -1.3065 O   0  0  0  0  0
   -4.1395   -2.6264   -2.9483 F   0  0  0  0  0
   -2.8662    1.3616   -0.0429 S   0  0  0  0  0
  1  2  1  0  0  0
  3  8  1  0  0  0
  4 10  1  0  0  0
  5 11  1  0  0  0
  6 12  1  0  0  0
  7  9  1  0  0  0
  7 13  1  0  0  0
 10 16  1  0  0  0
 11 21  1  0  0  0
 13 17  1  0  0  0
 14  8  1  0  0  0
 15  9  1  0  0  0
 22 12  1  0  0  0
 22 16  1  0  0  0
  1  4  2  0  0  0
  2  7  2  0  0  0
  3  5  2  0  0  0
  6 11  2  0  0  0
  8 12  2  0  0  0
  9 10  2  0  0  0
 13 18  2  0  0  0
 22 19  2  0  0  0
 22 20  2  0  0  0
M  CHG  1  17  -1
M  END
> <rmsd>
0.38940376

$$$$
ZINC65844579


 22 23  0  0  0  0  0  0  0  0999 V2000
    1.0495    2.6561   -2.3292 C   0  0  0  0  0
    1.9577    1.6033   -2.4412 C   0  0  0  0  0
   -2.7860   -2.3356   -1.7439 C   0  0  0  0  0
    0.0396    2.6068   -1.3684 C   0  0  0  0  0
   -3.2255   -3.1287   -0.6842 C   0  0  0  0  0
   -3.3599   -1.1711    0.7253 C   0  0  0  0  0
    1.8558    0.5013   -1.5922 C   0  0  0  0  0
   -2.6333   -0.9600   -1.5691 C   0  0  0  0  0
    0.8459    0.4519   -0.6313 C   0  0  0  0  0
   -0.0623    1.5047   -0.5194 C   0  0  0  0  0
   -3.5125   -2.5465    0.5505 C   0  0  0  0  0
   -2.9203   -0.3778   -0.3345 C   0  0  0  0  0
    2.8268   -0.5995   -1.7320 C   0  0  0  0  0
   -2.1613   -0.1392   -2.7243 C   0  0  0  0  0
    0.7372   -0.7311    0.2795 C   0  0  0  0  0
   -1.1056    1.4749    0.4580 N   0  0  0  0  0
    3.9155   -0.5528   -1.0478 O   0  0  0  0  0
    2.5512   -1.5675   -2.5335 O   0  0  0  0  0
   -3.6186    1.7208    1.0198 O   0  0  0  0  0
   -2.8865    2.0191   -1.3622 O   0  0  0  0  0
   -3.9347   -3.3084    1.5682 F   0  0  0  0  0
   -2.7383    1.3637   -0.0771 S   0  0  0  0  0
  1  2  1  0  0  0
  3  8  1  0  0  0
  4 10  1  0  0  0
  5 11  1  0  0  0
  6 12  1  0  0  0
  7  9  1  0  0  0
  7 13  1  0  0  0
 10 16  1  0  0  0
 11 21  1  0  0  0
 13 17  1  0  0  0
 14  8  1  0  0  0
 15  9  1  0  0  0
 22 12  1  0  0  0
 22 16  1  0  0  0
  1  4  2  0  0  0
  2  7  2  0  0  0
  3  5  2  0  0  0
  6 11  2  0  0  0
  8 12  2  0  0  0
  9 10  2  0  0  0
 13 18  2  0  0  0
 22 19  2  0  0  0
 22 20  2  0  0  0
M  CHG  1  17  -1
M  END
> <rmsd>
0.552864075

$$$$
ZINC65844579


 22 23  0  0  0  0  0  0  0  0999 V2000
    0.7215    2.5165   -2.6823 C   0  0  0  0  0
    1.5613    1.4242   -2.9000 C   0  0  0  0  0
   -3.2639   -2.2988   -1.7340 C   0  0  0  0  0
   -0.1816    2.5009   -1.6193 C   0  0  0  0  0
   -3.6254   -3.0853   -0.6403 C   0  0  0  0  0
   -3.5153   -1.1433    0.7928 C   0  0  0  0  0
    1.4979    0.3165   -2.0548 C   0  0  0  0  0
   -3.0279   -0.9345   -1.5643 C   0  0  0  0  0
    0.5948    0.3008   -0.9919 C   0  0  0  0  0
   -0.2450    1.3932   -0.7741 C   0  0  0  0  0
   -3.7512   -2.5076    0.6231 C   0  0  0  0  0
   -3.1537   -0.3567   -0.3010 C   0  0  0  0  0
    2.3948   -0.8263   -2.3075 C   0  0  0  0  0
   -2.6430   -0.1206   -2.7561 C   0  0  0  0  0
    0.5273   -0.8883   -0.0851 C   0  0  0  0  0
   -1.1785    1.3983    0.3091 N   0  0  0  0  0
    3.5510   -0.8398   -1.7433 O   0  0  0  0  0
    1.9895   -1.7692   -3.0834 O   0  0  0  0  0
   -3.6027    1.7531    1.1388 O   0  0  0  0  0
   -3.1150    2.0501   -1.3053 O   0  0  0  0  0
   -4.0985   -3.2631    1.6733 F   0  0  0  0  0
   -2.8623    1.3707   -0.0492 S   0  0  0  0  0
  1  2  1  0  0  0
  3  8  1  0  0  0
  4 10  1  0  0  0
  5 11  1  0  0  0
  6 12  1  0  0  0
  7  9  1  0  0  0
  7 13  1  0  0  0
 10 16  1  0  0  0
 11 21  1  0  0  0
 13 17  1  0  0  0
 14  8  1  0  0  0
 15  9  1  0  0  0
 22 12  1  0  0  0
 22 16  1  0  0  0
  1  4  2  0  0  0
  2  7  2  0  0  0
  3  5  2  0  0  0
  6 11  2  0  0  0
  8 12  2  0  0  0
  9 10  2  0  0  0
 13 18  2  0  0  0
 22 19  2  0  0  0
 22 20  2  0  0  0
M  CHG  1  17  -1
M  END
> <rmsd>
0.382120341

$$$$
ZINC76081926


 22 23  0  0  0  0  0  0  0  0999 V2000
    0.6986    2.4855   -2.7098 C   0  0  0  0  0
   -3.7718   -2.1877   -1.7376 C   0  0  0  0  0
    1.5419    1.3940   -2.9174 C   0  0  0  0  0
   -0.1988    2.4804   -1.6419 C   0  0  0  0  0
   -3.6174   -3.0904   -0.6855 C   0  0  0  0  0
   -3.5391   -0.8281   -1.5300 C   0  0  0  0  0
    1.4876    0.2973   -2.0571 C   0  0  0  0  0
    0.5903    0.2922   -0.9893 C   0  0  0  0  0
   -2.9977   -1.2740    0.7820 C   0  0  0  0  0
   -0.2530    1.3838   -0.7817 C   0  0  0  0  0
   -3.2304   -2.6337    0.5743 C   0  0  0  0  0
   -3.1521   -0.3713   -0.2701 C   0  0  0  0  0
    2.3895   -0.8440   -2.2981 C   0  0  0  0  0
    0.5322   -0.8847   -0.0663 C   0  0  0  0  0
   -2.5865   -0.8139    2.1424 C   0  0  0  0  0
   -1.1812    1.3998    0.3062 N   0  0  0  0  0
    3.5488   -0.8431   -1.7400 O   0  0  0  0  0
    1.9853   -1.8001   -3.0583 O   0  0  0  0  0
   -3.6024    1.7559    1.1434 O   0  0  0  0  0
   -3.1285    2.0219   -1.3069 O   0  0  0  0  0
   -3.0857   -3.5096    1.5787 F   0  0  0  0  0
   -2.8666    1.3606   -0.0430 S   0  0  0  0  0
  1  3  1  0  0  0
  2  5  1  0  0  0
  4 10  1  0  0  0
  6 12  1  0  0  0
  7  8  1  0  0  0
  7 13  1  0  0  0
  9 11  1  0  0  0
 10 16  1  0  0  0
 11 21  1  0  0  0
 13 17  1  0  0  0
 14  8  1  0  0  0
 15  9  1  0  0  0
 22 12  1  0  0  0
 22 16  1  0  0  0
  1  4  2  0  0  0
  2  6  2  0  0  0
  3  7  2  0  0  0
  5 11  2  0  0  0
  8 10  2  0  0  0
  9 12  2  0  0  0
 13 18  2  0  0  0
 22 19  2  0  0  0
 22 20  2  0  0  0
M  CHG  1  17  -1
M  END
> <rmsd>
0.388366669

$$$$
ZINC76081926


 22 23  0  0  0  0  0  0  0  0999 V2000
    1.0263    2.6326   -2.3601 C   0  0  0  0  0
   -3.2933   -2.2463   -1.8066 C   0  0  0  0  0
    1.9381    1.5822   -2.4638 C   0  0  0  0  0
    0.0219    2.5916   -1.3930 C   0  0  0  0  0
   -3.2082   -3.1325   -0.7329 C   0  0  0  0  0
   -3.1492   -0.8755   -1.5927 C   0  0  0  0  0
    1.8454    0.4906   -1.6004 C   0  0  0  0  0
    0.8411    0.4495   -0.6333 C   0  0  0  0  0
   -2.8353   -1.2771    0.7689 C   0  0  0  0  0
   -0.0707    1.5001   -0.5296 C   0  0  0  0  0
   -2.9793   -2.6480    0.5549 C   0  0  0  0  0
   -2.9203   -0.3909   -0.3049 C   0  0  0  0  0
    2.8213   -0.6070   -1.7305 C   0  0  0  0  0
    0.7419   -0.7219    0.2932 C   0  0  0  0  0
   -2.5932   -0.7874    2.1592 C   0  0  0  0  0
   -1.1087    1.4787    0.4539 N   0  0  0  0  0
    3.9135   -0.5452   -1.0531 O   0  0  0  0  0
    2.5462   -1.5874   -2.5170 O   0  0  0  0  0
   -3.6193    1.7221    1.0264 O   0  0  0  0  0
   -2.9015    1.9928   -1.3634 O   0  0  0  0  0
   -2.9003   -3.5084    1.5798 F   0  0  0  0  0
   -2.7437    1.3546   -0.0707 S   0  0  0  0  0
  1  3  1  0  0  0
  2  5  1  0  0  0
  4 10  1  0  0  0
  6 12  1  0  0  0
  7  8  1  0  0  0
  7 13  1  0  0  0
  9 11  1  0  0  0
 10 16  1  0  0  0
 11 21  1  0  0  0
 13 17  1  0  0  0
 14  8  1  0  0  0
 15  9  1  0  0  0
 22 12  1  0  0  0
 22 16  1  0  0  0
  1  4  2  0  0  0
  2  6  2  0  0  0
  3  7  2  0  0  0
  5 11  2  0  0  0
  8 10  2  0  0  0
  9 12  2  0  0  0
 13 18  2  0  0  0
 22 19  2  0  0  0
 22 20  2  0  0  0
M  CHG  1  17  -1
M  END
> <rmsd>
0.560995817

$$$$
ZINC76081926


 22 23  0  0  0  0  0  0  0  0999 V2000
    0.7211    2.5146   -2.6824 C   0  0  0  0  0
   -3.7514   -2.5078    0.6243 C   0  0  0  0  0
    1.5605    1.4222   -2.9004 C   0  0  0  0  0
   -0.1818    2.4993   -1.6193 C   0  0  0  0  0
   -3.6261   -3.0861   -0.6388 C   0  0  0  0  0
   -3.5158   -1.1434    0.7932 C   0  0  0  0  0
    1.4969    0.3143   -2.0553 C   0  0  0  0  0
    0.5941    0.2989   -0.9922 C   0  0  0  0  0
   -3.0294   -0.9355   -1.5642 C   0  0  0  0  0
   -0.2454    1.3914   -0.7742 C   0  0  0  0  0
   -3.2651   -2.3000   -1.7331 C   0  0  0  0  0
   -3.1548   -0.3573   -0.3010 C   0  0  0  0  0
    2.3949   -0.8278   -2.3071 C   0  0  0  0  0
    0.5260   -0.8901   -0.0854 C   0  0  0  0  0
   -2.6422   -0.1194   -2.7539 C   0  0  0  0  0
   -1.1790    1.3970    0.3091 N   0  0  0  0  0
    3.5513   -0.8397   -1.7431 O   0  0  0  0  0
    1.9903   -1.7718   -3.0821 O   0  0  0  0  0
   -3.6029    1.7528    1.1388 O   0  0  0  0  0
   -3.1152    2.0496   -1.3053 O   0  0  0  0  0
   -3.1465   -2.8660   -2.9424 F   0  0  0  0  0
   -2.8627    1.3702   -0.0492 S   0  0  0  0  0
  1  3  1  0  0  0
  2  5  1  0  0  0
  4 10  1  0  0  0
  6 12  1  0  0  0
  7  8  1  0  0  0
  7 13  1  0  0  0
  9 11  1  0  0  0
 10 16  1  0  0  0
 11 21  1  0  0  0
 13 17  1  0  0  0
 14  8  1  0  0  0
 15  9  1  0  0  0
 22 12  1  0  0  0
 22 16  1  0  0  0
  1  4  2  0  0  0
  2  6  2  0  0  0
  3  7  2  0  0  0
  5 11  2  0  0  0
  8 10  2  0  0  0
  9 12  2  0  0  0
 13 18  2  0  0  0
 22 19  2  0  0  0
 22 20  2  0  0  0
M  CHG  1  17  -1
M  END
> <rmsd>
0.381696612

$$$$
ZINC76081926


 22 23  0  0  0  0  0  0  0  0999 V2000
    1.0484    2.6551   -2.3295 C   0  0  0  0  0
   -3.5126   -2.5468    0.5515 C   0  0  0  0  0
    1.9564    1.6023   -2.4419 C   0  0  0  0  0
    0.0387    2.6058   -1.3684 C   0  0  0  0  0
   -3.2260   -3.1294   -0.6830 C   0  0  0  0  0
   -3.3604   -1.1712    0.7257 C   0  0  0  0  0
    1.8547    0.5000   -1.5932 C   0  0  0  0  0
    0.8450    0.4506   -0.6320 C   0  0  0  0  0
   -2.6349   -0.9608   -1.5692 C   0  0  0  0  0
   -0.0630    1.5035   -0.5196 C   0  0  0  0  0
   -2.7872   -2.3364   -1.7434 C   0  0  0  0  0
   -2.9216   -0.3783   -0.3346 C   0  0  0  0  0
    2.8267   -0.5999   -1.7322 C   0  0  0  0  0
    0.7360   -0.7323    0.2786 C   0  0  0  0  0
   -2.1613   -0.1375   -2.7221 C   0  0  0  0  0
   -1.1064    1.4739    0.4580 N   0  0  0  0  0
    3.9155   -0.5515   -1.0483 O   0  0  0  0  0
    2.5518   -1.5689   -2.5328 O   0  0  0  0  0
   -3.6190    1.7204    1.0201 O   0  0  0  0  0
   -2.8872    2.0189   -1.3621 O   0  0  0  0  0
   -2.5137   -2.9067   -2.9253 F   0  0  0  0  0
   -2.7390    1.3633   -0.0770 S   0  0  0  0  0
  1  3  1  0  0  0
  2  5  1  0  0  0
  4 10  1  0  0  0
  6 12  1  0  0  0
  7  8  1  0  0  0
  7 13  1  0  0  0
  9 11  1  0  0  0
 10 16  1  0  0  0
 11 21  1  0  0  0
 13 17  1  0  0  0
 14  8  1  0  0  0
 15  9  1  0  0  0
 22 12  1  0  0  0
 22 16  1  0  0  0
  1  4  2  0  0  0
  2  6  2  0  0  0
  3  7  2  0  0  0
  5 11  2  0  0  0
  8 10  2  0  0  0
  9 12  2  0  0  0
 13 18  2  0  0  0
 22 19  2  0  0  0
 22 20  2  0  0  0
M  CHG  1  17  -1
M  END
> <rmsd>
0.552155972

$$$$
ZINC06315815


 22 23  0  0  0  0  0  0  0  0999 V2000
    1.6940    2.6025   -1.3799 C   0  0  0  0  0
    0.5422    2.6353   -0.5938 C   0  0  0  0  0
    2.3124    1.3842   -1.6606 C   0  0  0  0  0
   -3.6173   -2.5265    0.6225 C   0  0  0  0  0
   -2.5435   -2.4038   -1.5383 C   0  0  0  0  0
   -3.4815   -1.1460    0.7684 C   0  0  0  0  0
   -2.4077   -1.0233   -1.3924 C   0  0  0  0  0
    0.6275    0.2313   -0.3687 C   0  0  0  0  0
    0.0090    1.4497   -0.0882 C   0  0  0  0  0
    1.7793    0.1986   -1.1550 C   0  0  0  0  0
   -3.1483   -3.1555   -0.5308 C   0  0  0  0  0
   -2.8767   -0.3943   -0.2390 C   0  0  0  0  0
   -2.7082   -6.6564    0.2025 C   0  0  0  0  0
   -3.2681   -5.2860    0.5191 C   0  0  0  0  0
   -1.1697    1.4836    0.7168 N   0  0  0  0  0
    2.4087   -1.0414   -1.4418 N   0  0  0  0  0
    3.4432   -1.0483   -2.1519 O   0  0  0  0  0
    1.9136   -2.0966   -0.9772 O   0  0  0  0  0
   -3.7359    1.7851    0.8736 O   0  0  0  0  0
   -2.6441    1.9389   -1.3812 O   0  0  0  0  0
   -3.2811   -4.5025   -0.6733 O   0  0  0  0  0
   -2.7052    1.3575   -0.0540 S   0  0  0  0  0
  1  3  1  0  0  0
  2  9  1  0  0  0
  4 11  1  0  0  0
  5  7  1  0  0  0
  6 12  1  0  0  0
  8 10  1  0  0  0
  9 15  1  0  0  0
 10 16  1  0  0  0
 11 21  1  0  0  0
 13 14  1  0  0  0
 14 21  1  0  0  0
 16 17  1  0  0  0
 22 12  1  0  0  0
 22 15  1  0  0  0
  1  2  2  0  0  0
  3 10  2  0  0  0
  4  6  2  0  0  0
  5 11  2  0  0  0
  7 12  2  0  0  0
  8  9  2  0  0  0
 16 18  2  0  0  0
 22 19  2  0  0  0
 22 20  2  0  0  0
M  CHG  2  16   1  17  -1
M  END
> <rmsd>
0.550390601

$$$$
ZINC00583243


 22 23  0  0  0  0  0  0  0  0999 V2000
    1.6641    2.5875   -1.4475 C   0  0  0  0  0
   -3.1225   -3.1549   -0.5627 C   0  0  0  0  0
    0.5206    2.6298   -0.6498 C   0  0  0  0  0
    2.2904    1.3678   -1.7045 C   0  0  0  0  0
   -3.1957   -2.5948    0.7125 C   0  0  0  0  0
   -2.7958   -0.9564   -1.5098 C   0  0  0  0  0
    0.6297    0.2330   -0.3660 C   0  0  0  0  0
   -2.9224   -2.3358   -1.6740 C   0  0  0  0  0
    0.0034    1.4527   -0.1090 C   0  0  0  0  0
    1.7732    0.1907   -1.1636 C   0  0  0  0  0
   -3.0690   -1.2154    0.8768 C   0  0  0  0  0
   -2.8691   -0.3962   -0.2344 C   0  0  0  0  0
   -2.8441   -2.9355   -3.0371 C   0  0  0  0  0
   -3.3503   -1.6050    3.2059 C   0  0  0  0  0
   -1.1753    1.4968    0.7136 N   0  0  0  0  0
    2.4106   -1.0505   -1.4265 N   0  0  0  0  0
    3.4375   -1.0662   -2.1474 O   0  0  0  0  0
    1.9299   -2.0982   -0.9304 O   0  0  0  0  0
   -3.7340    1.7796    0.8807 O   0  0  0  0  0
   -2.6567    1.9370   -1.3807 O   0  0  0  0  0
   -3.1442   -0.6899    2.1315 O   0  0  0  0  0
   -2.7083    1.3365   -0.0545 S   0  0  0  0  0
  1  4  1  0  0  0
  2  8  1  0  0  0
  3  9  1  0  0  0
  5 11  1  0  0  0
  6 12  1  0  0  0
  7 10  1  0  0  0
  9 15  1  0  0  0
 10 16  1  0  0  0
 11 21  1  0  0  0
 13  8  1  0  0  0
 14 21  1  0  0  0
 16 17  1  0  0  0
 22 12  1  0  0  0
 22 15  1  0  0  0
  1  3  2  0  0  0
  2  5  2  0  0  0
  4 10  2  0  0  0
  6  8  2  0  0  0
  7  9  2  0  0  0
 11 12  2  0  0  0
 16 18  2  0  0  0
 22 19  2  0  0  0
 22 20  2  0  0  0
M  CHG  2  16   1  17  -1
M  END
> <rmsd>
0.562272012

$$$$
ZINC00254938


 22 23  0  0  0  0  0  0  0  0999 V2000
   -3.2511   -2.5903    0.4314 C   0  0  0  0  0
   -2.4309   -2.2436   -1.8144 C   0  0  0  0  0
   -0.0512    2.7184   -1.3472 C   0  0  0  0  0
    0.9986    2.8159   -2.2605 C   0  0  0  0  0
   -3.2089   -1.2149    0.6592 C   0  0  0  0  0
   -2.3887   -0.8681   -1.5867 C   0  0  0  0  0
    1.0004    0.7883   -0.3444 C   0  0  0  0  0
   -2.8620   -3.1047   -0.8054 C   0  0  0  0  0
   -0.0503    1.7046   -0.3892 C   0  0  0  0  0
    2.0502    0.8857   -1.2577 C   0  0  0  0  0
    2.0493    1.8996   -2.2157 C   0  0  0  0  0
   -2.7778   -0.3537   -0.3499 C   0  0  0  0  0
   -2.9049   -4.5754   -1.0486 C   0  0  0  0  0
    2.9739    3.0836   -4.0594 C   0  0  0  0  0
   -1.1333    1.6043    0.5517 N   0  0  0  0  0
    3.1126   -0.0574   -1.1984 N   0  0  0  0  0
    3.0225   -1.1146   -1.8665 O   0  0  0  0  0
    4.1087    0.1959   -0.4801 O   0  0  0  0  0
   -3.6729    1.6720    0.9996 O   0  0  0  0  0
   -2.8591    2.0566   -1.3434 O   0  0  0  0  0
    3.0635    2.0153   -3.1194 O   0  0  0  0  0
   -2.7244    1.3681   -0.0654 S   0  0  0  0  0
  1  8  1  0  0  0
  2  6  1  0  0  0
  3  9  1  0  0  0
  4 11  1  0  0  0
  5 12  1  0  0  0
  7 10  1  0  0  0
  9 15  1  0  0  0
 10 16  1  0  0  0
 11 21  1  0  0  0
 13  8  1  0  0  0
 14 21  1  0  0  0
 16 17  1  0  0  0
 22 12  1  0  0  0
 22 15  1  0  0  0
  1  5  2  0  0  0
  2  8  2  0  0  0
  3  4  2  0  0  0
  6 12  2  0  0  0
  7  9  2  0  0  0
 10 11  2  0  0  0
 16 18  2  0  0  0
 22 19  2  0  0  0
 22 20  2  0  0  0
M  CHG  2  16   1  17  -1
M  END
> <rmsd>
0.709183991

$$$$
ZINC00474768


 22 23  0  0  0  0  0  0  0  0999 V2000
    1.0378    2.8559   -2.1959 C   0  0  0  0  0
   -0.0223    2.7467   -1.2959 C   0  0  0  0  0
   -3.2566   -2.5885    0.4391 C   0  0  0  0  0
   -2.4301   -2.2488   -1.8056 C   0  0  0  0  0
   -3.2120   -1.2127    0.6638 C   0  0  0  0  0
   -2.3856   -0.8729   -1.5809 C   0  0  0  0  0
    1.0010    0.7832   -0.3290 C   0  0  0  0  0
    2.0794    1.9287   -2.1626 C   0  0  0  0  0
   -0.0407    1.7104   -0.3624 C   0  0  0  0  0
    2.0610    0.8924   -1.2291 C   0  0  0  0  0
   -2.8656   -3.1066   -0.7956 C   0  0  0  0  0
   -2.7765   -0.3548   -0.3462 C   0  0  0  0  0
    3.2006    2.0744   -3.1403 C   0  0  0  0  0
   -3.3651   -5.2684    0.0608 C   0  0  0  0  0
   -1.1267    1.5984    0.5578 N   0  0  0  0  0
    3.1114   -0.0651   -1.1784 N   0  0  0  0  0
    3.0163   -1.1060   -1.8707 O   0  0  0  0  0
    4.1015    0.1603   -0.4431 O   0  0  0  0  0
   -3.6773    1.6757    0.9925 O   0  0  0  0  0
   -2.8455    2.0536   -1.3452 O   0  0  0  0  0
   -2.9093   -4.4491   -1.0149 O   0  0  0  0  0
   -2.7210    1.3911   -0.0611 S   0  0  0  0  0
  1  8  1  0  0  0
  2  9  1  0  0  0
  3 11  1  0  0  0
  4  6  1  0  0  0
  5 12  1  0  0  0
  7 10  1  0  0  0
  9 15  1  0  0  0
 10 16  1  0  0  0
 11 21  1  0  0  0
 13  8  1  0  0  0
 14 21  1  0  0  0
 16 17  1  0  0  0
 22 12  1  0  0  0
 22 15  1  0  0  0
  1  2  2  0  0  0
  3  5  2  0  0  0
  4 11  2  0  0  0
  6 12  2  0  0  0
  7  9  2  0  0  0
  8 10  2  0  0  0
 16 18  2  0  0  0
 22 19  2  0  0  0
 22 20  2  0  0  0
M  CHG  2  16   1  17  -1
M  END
> <rmsd>
0.706929266

$$$$
ZINC00184111


 22 23  0  0  0  0  0  0  0  0999 V2000
    0.7318    2.4826   -2.6920 C   0  0  0  0  0
   -0.1720    2.4769   -1.6296 C   0  0  0  0  0
    1.5715    1.3882   -2.8994 C   0  0  0  0  0
   -3.7411   -2.5303    0.6090 C   0  0  0  0  0
   -3.2439   -2.2929   -1.7433 C   0  0  0  0  0
   -3.5101   -1.1674    0.7954 C   0  0  0  0  0
   -3.0130   -0.9299   -1.5570 C   0  0  0  0  0
    0.6035    0.2823   -0.9818 C   0  0  0  0  0
   -0.2361    1.3767   -0.7744 C   0  0  0  0  0
    1.5073    0.2881   -2.0442 C   0  0  0  0  0
   -3.6079   -3.0930   -0.6603 C   0  0  0  0  0
   -3.1461   -0.3672   -0.2876 C   0  0  0  0  0
    0.5301   -0.8963   -0.0603 C   0  0  0  0  0
   -4.2028   -5.1821    0.3080 C   0  0  0  0  0
   -1.1706    1.3924    0.3083 N   0  0  0  0  0
    2.3746   -0.8153   -2.2763 N   0  0  0  0  0
    3.5016   -0.8256   -1.7275 O   0  0  0  0  0
    1.9858   -1.7446   -3.0224 O   0  0  0  0  0
   -3.5949    1.7557    1.1330 O   0  0  0  0  0
   -3.1055    2.0306   -1.3134 O   0  0  0  0  0
   -3.8335   -4.4228   -0.8421 O   0  0  0  0  0
   -2.8539    1.3623   -0.0510 S   0  0  0  0  0
  1  2  1  0  0  0
  3 10  1  0  0  0
  4 11  1  0  0  0
  5  7  1  0  0  0
  6 12  1  0  0  0
  8  9  1  0  0  0
  9 15  1  0  0  0
 10 16  1  0  0  0
 11 21  1  0  0  0
 13  8  1  0  0  0
 14 21  1  0  0  0
 16 17  1  0  0  0
 22 12  1  0  0  0
 22 15  1  0  0  0
  1  3  2  0  0  0
  2  9  2  0  0  0
  4  6  2  0  0  0
  5 11  2  0  0  0
  7 12  2  0  0  0
  8 10  2  0  0  0
 16 18  2  0  0  0
 22 19  2  0  0  0
 22 20  2  0  0  0
M  CHG  2  16   1  17  -1
M  END
> <rmsd>
0.391708523

$$$$
ZINC00617879


 22 23  0  0  0  0  0  0  0  0999 V2000
    1.6657    2.5893   -1.4415 C   0  0  0  0  0
    0.5215    2.6302   -0.6447 C   0  0  0  0  0
    2.2918    1.3701   -1.7008 C   0  0  0  0  0
   -3.6006   -2.5300    0.6094 C   0  0  0  0  0
   -3.4720   -1.1493    0.7591 C   0  0  0  0  0
   -2.3969   -1.0154   -1.4004 C   0  0  0  0  0
    0.6297    0.2326   -0.3665 C   0  0  0  0  0
   -2.5255   -2.3963   -1.5500 C   0  0  0  0  0
    0.0036    1.4518   -0.1073 C   0  0  0  0  0
    1.7738    0.1919   -1.1633 C   0  0  0  0  0
   -3.1273   -3.1537   -0.5450 C   0  0  0  0  0
   -2.8701   -0.3919   -0.2458 C   0  0  0  0  0
   -2.0126   -3.0471   -2.7922 C   0  0  0  0  0
   -3.8880   -5.1988    0.4007 C   0  0  0  0  0
   -1.1759    1.4944    0.7145 N   0  0  0  0  0
    2.4111   -1.0489   -1.4286 N   0  0  0  0  0
    3.4387   -1.0632   -2.1487 O   0  0  0  0  0
    1.9297   -2.0976   -0.9353 O   0  0  0  0  0
   -3.7345    1.7792    0.8789 O   0  0  0  0  0
   -2.6533    1.9468   -1.3800 O   0  0  0  0  0
   -3.2607   -4.5032   -0.6748 O   0  0  0  0  0
   -2.7081    1.3361   -0.0573 S   0  0  0  0  0
  1  3  1  0  0  0
  2  9  1  0  0  0
  4 11  1  0  0  0
  5 12  1  0  0  0
  6  8  1  0  0  0
  7 10  1  0  0  0
  9 15  1  0  0  0
 10 16  1  0  0  0
 11 21  1  0  0  0
 13  8  1  0  0  0
 14 21  1  0  0  0
 16 17  1  0  0  0
 22 12  1  0  0  0
 22 15  1  0  0  0
  1  2  2  0  0  0
  3 10  2  0  0  0
  4  5  2  0  0  0
  6 12  2  0  0  0
  7  9  2  0  0  0
  8 11  2  0  0  0
 16 18  2  0  0  0
 22 19  2  0  0  0
 22 20  2  0  0  0
M  CHG  2  16   1  17  -1
M  END
> <rmsd>
0.560007453

$$$$
ZINC03150108


 22 23  0  0  0  0  0  0  0  0999 V2000
   -3.1332   -3.1577   -0.5662 C   0  0  0  0  0
   -2.9330   -2.3316   -1.6721 C   0  0  0  0  0
    1.6829    2.5974   -1.4008 C   0  0  0  0  0
    0.5338    2.6338   -0.6111 C   0  0  0  0  0
   -3.2050   -2.6057    0.7128 C   0  0  0  0  0
    2.3034    1.3783   -1.6737 C   0  0  0  0  0
   -2.8045   -0.9534   -1.4989 C   0  0  0  0  0
    0.6258    0.2318   -0.3667 C   0  0  0  0  0
    0.0052    1.4510   -0.0940 C   0  0  0  0  0
    1.7749    0.1956   -1.1566 C   0  0  0  0  0
   -3.0766   -1.2276    0.8859 C   0  0  0  0  0
   -2.8763   -0.4014   -0.2200 C   0  0  0  0  0
   -1.1708    1.4885    0.7147 N   0  0  0  0  0
    2.4065   -1.0451   -1.4355 N   0  0  0  0  0
   -3.1547   -0.6946    2.2026 N   0  0  0  0  0
    3.4387   -1.0553   -2.1490 O   0  0  0  0  0
   -2.1019   -0.5824    2.8736 O   0  0  0  0  0
    1.9156   -2.0978   -0.9607 O   0  0  0  0  0
   -4.2738   -0.3530    2.6521 O   0  0  0  0  0
   -3.7373    1.7849    0.8777 O   0  0  0  0  0
   -2.6535    1.9230   -1.3819 O   0  0  0  0  0
   -2.7086    1.3523   -0.0498 S   0  0  0  0  0
  1  2  1  0  0  0
  3  6  1  0  0  0
  4  9  1  0  0  0
  5 11  1  0  0  0
  7 12  1  0  0  0
  8 10  1  0  0  0
  9 13  1  0  0  0
 10 14  1  0  0  0
 11 15  1  0  0  0
 14 16  1  0  0  0
 15 17  1  0  0  0
 22 12  1  0  0  0
 22 13  1  0  0  0
  1  5  2  0  0  0
  2  7  2  0  0  0
  3  4  2  0  0  0
  6 10  2  0  0  0
  8  9  2  0  0  0
 11 12  2  0  0  0
 14 18  2  0  0  0
 15 19  2  0  0  0
 22 20  2  0  0  0
 22 21  2  0  0  0
M  CHG  4  14   1  15   1  16  -1  17  -1
M  END
> <rmsd>
0.556164563

$$$$
ZINC03151713


 22 23  0  0  0  0  0  0  0  0999 V2000
    1.6940    2.6023   -1.3799 C   0  0  0  0  0
    0.5422    2.6352   -0.5939 C   0  0  0  0  0
    2.3123    1.3839   -1.6606 C   0  0  0  0  0
   -3.6171   -2.5265    0.6220 C   0  0  0  0  0
   -2.5423   -2.4038   -1.5382 C   0  0  0  0  0
   -3.4820   -1.1459    0.7677 C   0  0  0  0  0
   -2.4072   -1.0230   -1.3926 C   0  0  0  0  0
    0.6272    0.2311   -0.3690 C   0  0  0  0  0
    0.0088    1.4496   -0.0884 C   0  0  0  0  0
   -3.1472   -3.1554   -0.5310 C   0  0  0  0  0
    1.7789    0.1984   -1.1552 C   0  0  0  0  0
   -2.8770   -0.3941   -0.2396 C   0  0  0  0  0
   -1.1699    1.4836    0.7165 N   0  0  0  0  0
   -3.2859   -4.5604   -0.6800 N   0  0  0  0  0
    2.4083   -1.0416   -1.4421 N   0  0  0  0  0
   -3.8343   -5.2183    0.2373 O   0  0  0  0  0
    3.4429   -1.0486   -2.1521 O   0  0  0  0  0
   -2.8568   -5.1066   -1.7252 O   0  0  0  0  0
    1.9130   -2.0969   -0.9776 O   0  0  0  0  0
   -3.7362    1.7853    0.8731 O   0  0  0  0  0
   -2.6442    1.9392   -1.3816 O   0  0  0  0  0
   -2.7054    1.3577   -0.0544 S   0  0  0  0  0
  1  2  1  0  0  0
  3 11  1  0  0  0
  4 10  1  0  0  0
  5  7  1  0  0  0
  6 12  1  0  0  0
  8  9  1  0  0  0
  9 13  1  0  0  0
 10 14  1  0  0  0
 11 15  1  0  0  0
 14 16  1  0  0  0
 15 17  1  0  0  0
 22 12  1  0  0  0
 22 13  1  0  0  0
  1  3  2  0  0  0
  2  9  2  0  0  0
  4  6  2  0  0  0
  5 10  2  0  0  0
  7 12  2  0  0  0
  8 11  2  0  0  0
 14 18  2  0  0  0
 15 19  2  0  0  0
 22 20  2  0  0  0
 22 21  2  0  0  0
M  CHG  4  14   1  15   1  16  -1  17  -1
M  END
> <rmsd>
0.550884366

$$$$
ZINC74763435


 23 24  0  0  0  0  0  0  0  0999 V2000
   -3.7191   -0.9505    0.8591 C   0  0  0  0  0
   -3.6842   -2.3415    0.7617 C   0  0  0  0  0
    0.8809    0.2513    0.7687 C   0  0  0  0  0
   -3.2898   -2.1651   -1.6154 C   0  0  0  0  0
    1.0352   -0.3547   -1.8873 C   0  0  0  0  0
   -3.5394   -0.1668   -0.2807 C   0  0  0  0  0
    1.9485   -0.5085    0.3034 C   0  0  0  0  0
    2.0345   -0.8217   -1.0486 C   0  0  0  0  0
   -3.4695   -2.9488   -0.4755 C   0  0  0  0  0
   -3.3247   -0.7741   -1.5180 C   0  0  0  0  0
   -0.0665    0.6704   -0.1513 C   0  0  0  0  0
    2.9831   -0.9719    1.2765 C   0  0  0  0  0
   -4.7018    1.9502   -1.0407 C   0  0  0  0  0
   -2.1865    1.9293   -0.5337 C   0  0  0  0  0
   -3.5785    1.3610   -0.1699 C   0  0  0  0  0
   -0.0168    0.3857   -1.4720 N   0  0  0  0  0
   -1.1167    1.4214    0.3235 N   0  0  0  0  0
    3.1030   -1.5938   -1.5748 N   0  0  0  0  0
    4.1374   -1.0074   -1.9760 O   0  0  0  0  0
    2.9847   -2.8422   -1.6244 O   0  0  0  0  0
   -3.8720    1.7296    1.1849 O   0  0  0  0  0
   -3.4353   -4.2846   -0.5689 F   0  0  0  0  0
   -3.1513   -0.0293   -2.6188 F   0  0  0  0  0
  1  6  1  0  0  0
  2  9  1  0  0  0
  3  7  1  0  0  0
  4 10  1  0  0  0
  5  8  1  0  0  0
  8 18  1  0  0  0
  9 22  1  0  0  0
 10 23  1  0  0  0
 11 16  1  0  0  0
 11 17  1  0  0  0
 12  7  1  0  0  0
 13 15  1  0  0  0
 14 15  1  0  0  0
 14 17  1  0  0  0
 15  6  1  0  0  0
 15 21  1  0  0  0
 18 19  1  0  0  0
  1  2  2  0  0  0
  3 11  2  0  0  0
  4  9  2  0  0  0
  5 16  2  0  0  0
  6 10  2  0  0  0
  7  8  2  0  0  0
 18 20  2  0  0  0
M  CHG  2  18   1  19  -1
M  END
> <rmsd>
0.356934369

$$$$
ZINC57748662


 22 23  0  0  0  0  0  0  0  0999 V2000
   -2.8836   -3.1070   -0.7787 C   0  0  0  0  0
   -3.2696   -2.5744    0.4513 C   0  0  0  0  0
   -0.0180    2.7513   -1.2913 C   0  0  0  0  0
    1.0436    2.8641   -2.1890 C   0  0  0  0  0
   -2.4437   -2.2618   -1.7975 C   0  0  0  0  0
   -3.2158   -1.1967    0.6626 C   0  0  0  0  0
    1.0035    0.7840   -0.3305 C   0  0  0  0  0
   -0.0381    1.7113   -0.3621 C   0  0  0  0  0
    2.0852    1.9368   -2.1574 C   0  0  0  0  0
    2.0651    0.8967   -1.2282 C   0  0  0  0  0
   -2.3899   -0.8842   -1.5862 C   0  0  0  0  0
   -2.7759   -0.3515   -0.3561 C   0  0  0  0  0
   -1.5833   -0.7115   -3.8168 C   0  0  0  0  0
    3.1493    2.0736   -3.0776 N   0  0  0  0  0
   -1.1248    1.5965    0.5570 N   0  0  0  0  0
    3.1142   -0.0633   -1.1757 N   0  0  0  0  0
    3.0193   -1.1017   -1.8711 O   0  0  0  0  0
    4.1012    0.1589   -0.4361 O   0  0  0  0  0
   -3.6756    1.6742    0.9902 O   0  0  0  0  0
   -2.8419    2.0611   -1.3453 O   0  0  0  0  0
   -1.9567   -0.0771   -2.5955 O   0  0  0  0  0
   -2.7188    1.3931   -0.0638 S   0  0  0  0  0
  1  2  1  0  0  0
  3  8  1  0  0  0
  4  9  1  0  0  0
  5 11  1  0  0  0
  6 12  1  0  0  0
  7 10  1  0  0  0
  8 15  1  0  0  0
  9 14  1  0  0  0
 10 16  1  0  0  0
 11 21  1  0  0  0
 13 21  1  0  0  0
 16 17  1  0  0  0
 22 12  1  0  0  0
 22 15  1  0  0  0
  1  5  2  0  0  0
  2  6  2  0  0  0
  3  4  2  0  0  0
  7  8  2  0  0  0
  9 10  2  0  0  0
 11 12  2  0  0  0
 16 18  2  0  0  0
 22 19  2  0  0  0
 22 20  2  0  0  0
M  CHG  2  16   1  17  -1
M  END
> <rmsd>
0.700800002

$$$$
ZINC18707242


 22 23  0  0  0  0  0  0  0  0999 V2000
   -0.0237    2.7466   -1.2990 C   0  0  0  0  0
    1.0361    2.8569   -2.1990 C   0  0  0  0  0
   -3.2556   -2.5892    0.4391 C   0  0  0  0  0
   -2.4318   -2.2490   -1.8064 C   0  0  0  0  0
   -3.2110   -1.2133    0.6640 C   0  0  0  0  0
   -2.3871   -0.8732   -1.5816 C   0  0  0  0  0
    1.0015    0.7841   -0.3322 C   0  0  0  0  0
   -0.0411    1.7103   -0.3655 C   0  0  0  0  0
    2.0787    1.9308   -2.1657 C   0  0  0  0  0
    2.0613    0.8944   -1.2322 C   0  0  0  0  0
   -2.8660   -3.1071   -0.7961 C   0  0  0  0  0
   -2.7767   -0.3553   -0.3463 C   0  0  0  0  0
   -3.3642   -5.2689    0.0606 C   0  0  0  0  0
    3.1410    2.0650   -3.0884 N   0  0  0  0  0
   -1.1260    1.5980    0.5560 N   0  0  0  0  0
    3.1116   -0.0644   -1.1779 N   0  0  0  0  0
    3.0164   -1.1056   -1.8689 O   0  0  0  0  0
    4.0997    0.1618   -0.4410 O   0  0  0  0  0
   -3.6761    1.6748    0.9936 O   0  0  0  0  0
   -2.8471    2.0533   -1.3450 O   0  0  0  0  0
   -2.9099   -4.4495   -1.0155 O   0  0  0  0  0
   -2.7210    1.3906   -0.0611 S   0  0  0  0  0
  1  8  1  0  0  0
  2  9  1  0  0  0
  3 11  1  0  0  0
  4  6  1  0  0  0
  5 12  1  0  0  0
  7 10  1  0  0  0
  8 15  1  0  0  0
  9 14  1  0  0  0
 10 16  1  0  0  0
 11 21  1  0  0  0
 13 21  1  0  0  0
 16 17  1  0  0  0
 22 12  1  0  0  0
 22 15  1  0  0  0
  1  2  2  0  0  0
  3  5  2  0  0  0
  4 11  2  0  0  0
  6 12  2  0  0  0
  7  8  2  0  0  0
  9 10  2  0  0  0
 16 18  2  0  0  0
 22 19  2  0  0  0
 22 20  2  0  0  0
M  CHG  2  16   1  17  -1
M  END
> <rmsd>
0.706651211

$$$$
ZINC92687997


 24 26  0  0  0  0  0  0  0  0999 V2000
    1.6280    4.3379   -2.3449 C   0  0  0  0  0
   -3.7875   -2.7318   -0.5890 C   0  0  0  0  0
   -3.4007   -1.7093   -1.4685 C   0  0  0  0  0
   -3.8987   -2.4868    0.7806 C   0  0  0  0  0
   -3.1205   -0.4265   -0.9915 C   0  0  0  0  0
    0.4579    2.6790   -0.9810 C   0  0  0  0  0
    2.2372    1.9721   -2.4545 C   0  0  0  0  0
    1.4393    2.9856   -1.9236 C   0  0  0  0  0
   -3.6069   -1.2154    1.2466 C   0  0  0  0  0
   -3.2233   -0.1893    0.3708 C   0  0  0  0  0
    1.0726    0.3455   -1.1000 C   0  0  0  0  0
    0.2747    1.3589   -0.5691 C   0  0  0  0  0
    2.0539    0.6520   -2.0427 C   0  0  0  0  0
   -3.6883   -0.7170    2.6553 C   0  0  0  0  0
   -2.8404    0.5634    2.5663 C   0  0  0  0  0
   -3.0082    1.0934    1.1248 C   0  0  0  0  0
    0.8730   -1.0705   -0.6540 C   0  0  0  0  0
   -1.8175    1.9247    0.6671 C   0  0  0  0  0
    1.7812    5.4362   -2.6870 N   0  0  0  0  0
   -0.7123    1.0727    0.3756 N   0  0  0  0  0
    2.8813   -0.3633   -2.5976 N   0  0  0  0  0
    3.9615   -0.6434   -2.0264 O   0  0  0  0  0
    2.5056   -0.9476   -3.6410 O   0  0  0  0  0
   -4.1981    1.8703    1.0311 O   0  0  0  0  0
  2  4  1  0  0  0
  3  5  1  0  0  0
  6  8  1  0  0  0
  7 13  1  0  0  0
  8  1  1  0  0  0
  9 10  1  0  0  0
 11 12  1  0  0  0
 12 20  1  0  0  0
 13 21  1  0  0  0
 14  9  1  0  0  0
 14 15  1  0  0  0
 15 16  1  0  0  0
 16 10  1  0  0  0
 16 18  1  0  0  0
 16 24  1  0  0  0
 17 11  1  0  0  0
 18 20  1  0  0  0
 21 22  1  0  0  0
  2  3  2  0  0  0
  4  9  2  0  0  0
  5 10  2  0  0  0
  6 12  2  0  0  0
  7  8  2  0  0  0
 11 13  2  0  0  0
 21 23  2  0  0  0
  1 19  3  0  0  0
M  CHG  2  21   1  22  -1
M  END
> <rmsd>
0.350170314

$$$$
ZINC66859883


 24 26  0  0  0  0  0  0  0  0999 V2000
    0.1578   -0.0959    2.4212 C   0  0  0  0  0
   -3.1724   -2.9651   -0.4844 C   0  0  0  0  0
   -2.6083   -2.2840    0.5879 C   0  0  0  0  0
   -3.8435   -2.2577   -1.4796 C   0  0  0  0  0
   -2.7184   -0.8957    0.6666 C   0  0  0  0  0
    0.5212    0.9156   -1.1563 C   0  0  0  0  0
    1.6910    0.2369   -1.4981 C   0  0  0  0  0
    1.8317   -0.6499    0.7448 C   0  0  0  0  0
    0.6621    0.0288    1.0867 C   0  0  0  0  0
   -3.9533   -0.8582   -1.4186 C   0  0  0  0  0
   -3.3965   -0.1627   -0.3258 C   0  0  0  0  0
    0.0068    0.8116    0.1361 C   0  0  0  0  0
    2.3462   -0.5458   -0.5476 C   0  0  0  0  0
   -4.7252   -0.1543   -2.5071 C   0  0  0  0  0
   -4.4734    1.3484   -2.5587 C   0  0  0  0  0
   -4.5560    1.9399   -1.1594 C   0  0  0  0  0
   -3.4805    1.3538   -0.2258 C   0  0  0  0  0
   -2.1042    1.9764   -0.5064 C   0  0  0  0  0
   -0.2508   -0.1970    3.5027 N   0  0  0  0  0
   -1.1670    1.5032    0.4514 N   0  0  0  0  0
    3.5369   -1.2367   -0.8963 N   0  0  0  0  0
    3.9820   -1.1293   -2.0644 O   0  0  0  0  0
    4.1113   -1.9352   -0.0265 O   0  0  0  0  0
   -3.8553    1.7075    1.1114 O   0  0  0  0  0
  2  3  1  0  0  0
  4 10  1  0  0  0
  5 11  1  0  0  0
  6 12  1  0  0  0
  7 13  1  0  0  0
  8  9  1  0  0  0
  9  1  1  0  0  0
 12 20  1  0  0  0
 13 21  1  0  0  0
 14 10  1  0  0  0
 14 15  1  0  0  0
 15 16  1  0  0  0
 16 17  1  0  0  0
 17 11  1  0  0  0
 17 18  1  0  0  0
 17 24  1  0  0  0
 18 20  1  0  0  0
 21 22  1  0  0  0
  2  4  2  0  0  0
  3  5  2  0  0  0
  6  7  2  0  0  0
  8 13  2  0  0  0
  9 12  2  0  0  0
 10 11  2  0  0  0
 21 23  2  0  0  0
  1 19  3  0  0  0
M  CHG  2  21   1  22  -1
M  END
> <rmsd>
0.416039228

$$$$
ZINC03152690


 22 23  0  0  0  0  0  0  0  0999 V2000
    0.6756    2.2168   -2.8427 C   0  0  0  0  0
    1.6721    1.2417   -2.8008 C   0  0  0  0  0
   -0.2475    2.3158   -1.8016 C   0  0  0  0  0
    0.8225    0.4646   -0.6768 C   0  0  0  0  0
    1.7456    0.3657   -1.7178 C   0  0  0  0  0
   -0.1740    1.4398   -0.7186 C   0  0  0  0  0
   -2.9766   -0.3576   -0.3660 C   0  0  0  0  0
   -3.8877   -0.7967   -1.2532 C   0  0  0  0  0
   -2.1202   -1.3310    0.3668 C   0  0  0  0  0
   -3.2877   -3.1350   -0.8590 C   0  0  0  0  0
    2.7975   -0.6633   -1.6745 C   0  0  0  0  0
   -4.8243    0.0510   -2.0715 C   0  0  0  0  0
   -4.0308   -2.1499   -1.4857 N   0  0  0  0  0
   -2.3513   -2.6611    0.0548 N   0  0  0  0  0
   -1.1283    1.5417    0.3568 N   0  0  0  0  0
    2.8438   -1.4596   -0.6634 O   0  0  0  0  0
   -1.2770   -0.9665    1.1818 O   0  0  0  0  0
   -3.4409   -4.3349   -1.0905 O   0  0  0  0  0
    3.6367   -0.7329   -2.6488 O   0  0  0  0  0
   -3.0584    2.0487   -1.3134 O   0  0  0  0  0
   -3.5765    1.6663    1.1093 O   0  0  0  0  0
   -2.7963    1.3311   -0.0740 S   0  0  0  0  0
  1  2  1  0  0  0
  3  6  1  0  0  0
  4  5  1  0  0  0
  5 11  1  0  0  0
  6 15  1  0  0  0
  7  9  1  0  0  0
  8 13  1  0  0  0
  9 14  1  0  0  0
 10 13  1  0  0  0
 10 14  1  0  0  0
 11 16  1  0  0  0
 12  8  1  0  0  0
 22  7  1  0  0  0
 22 15  1  0  0  0
  1  3  2  0  0  0
  2  5  2  0  0  0
  4  6  2  0  0  0
  7  8  2  0  0  0
  9 17  2  0  0  0
 10 18  2  0  0  0
 11 19  2  0  0  0
 22 20  2  0  0  0
 22 21  2  0  0  0
M  CHG  1  16  -1
M  END
> <rmsd>
0.575751662

$$$$
ZINC24432822


 22 23  0  0  0  0  0  0  0  0999 V2000
    1.9445    1.6035   -2.4670 C   0  0  0  0  0
   -3.4675   -2.5743    0.5165 C   0  0  0  0  0
   -2.7640   -2.3062   -1.7792 C   0  0  0  0  0
    1.0398    2.6601   -2.3629 C   0  0  0  0  0
   -3.3328   -1.2007    0.7182 C   0  0  0  0  0
   -2.6293   -0.9326   -1.5776 C   0  0  0  0  0
    0.8312    0.4711   -0.6463 C   0  0  0  0  0
    1.8401    0.5090   -1.6087 C   0  0  0  0  0
   -0.0735    1.5276   -0.5422 C   0  0  0  0  0
   -3.1831   -3.1271   -0.7322 C   0  0  0  0  0
    0.0308    2.6222   -1.4006 C   0  0  0  0  0
   -2.9136   -0.3799   -0.3288 C   0  0  0  0  0
    2.7947   -0.6056   -1.7186 C   0  0  0  0  0
   -3.7478   -5.2477    0.1841 C   0  0  0  0  0
   -1.1050    1.4871    0.4442 N   0  0  0  0  0
    2.6770   -1.6045   -0.9140 O   0  0  0  0  0
    3.7170   -0.5459   -2.6158 O   0  0  0  0  0
   -3.6156    1.7127    1.0330 O   0  0  0  0  0
   -2.9104    2.0175   -1.3564 O   0  0  0  0  0
   -3.3148   -4.4672   -0.9291 O   0  0  0  0  0
   -0.8339    3.6427   -1.3094 F   0  0  0  0  0
   -2.7436    1.3631   -0.0728 S   0  0  0  0  0
  1  8  1  0  0  0
  2 10  1  0  0  0
  3  6  1  0  0  0
  4 11  1  0  0  0
  5 12  1  0  0  0
  7  9  1  0  0  0
  8 13  1  0  0  0
  9 15  1  0  0  0
 10 20  1  0  0  0
 11 21  1  0  0  0
 13 16  1  0  0  0
 14 20  1  0  0  0
 22 12  1  0  0  0
 22 15  1  0  0  0
  1  4  2  0  0  0
  2  5  2  0  0  0
  3 10  2  0  0  0
  6 12  2  0  0  0
  7  8  2  0  0  0
  9 11  2  0  0  0
 13 17  2  0  0  0
 22 18  2  0  0  0
 22 19  2  0  0  0
M  CHG  1  16  -1
M  END
> <rmsd>
0.576788068

$$$$
ZINC12923613


 22 23  0  0  0  0  0  0  0  0999 V2000
   -0.1018    2.4933   -1.5713 C   0  0  0  0  0
   -3.5496   -2.5636    0.5452 C   0  0  0  0  0
   -2.9116   -2.3109   -1.7713 C   0  0  0  0  0
    0.8765    2.5131   -2.5654 C   0  0  0  0  0
   -3.3821   -1.1927    0.7409 C   0  0  0  0  0
   -2.7443   -0.9399   -1.5756 C   0  0  0  0  0
    0.8582    0.4690   -0.6672 C   0  0  0  0  0
    1.8365    0.4888   -1.6613 C   0  0  0  0  0
   -0.1108    1.4711   -0.6221 C   0  0  0  0  0
   -3.3142   -3.1227   -0.7109 C   0  0  0  0  0
    1.8455    1.5109   -2.6105 C   0  0  0  0  0
   -2.9795   -0.3809   -0.3196 C   0  0  0  0  0
    2.8583   -0.5697   -1.7058 C   0  0  0  0  0
   -3.8916   -5.2312    0.2252 C   0  0  0  0  0
   -1.1123    1.4513    0.3954 N   0  0  0  0  0
    2.8254   -1.5005   -0.8163 O   0  0  0  0  0
    3.7517   -0.5300   -2.6324 O   0  0  0  0  0
   -3.5990    1.7259    1.0603 O   0  0  0  0  0
   -2.9613    2.0152   -1.3499 O   0  0  0  0  0
   -3.4779   -4.4602   -0.9018 O   0  0  0  0  0
    2.7810    1.5398   -3.5701 F   0  0  0  0  0
   -2.7680    1.3587   -0.0713 S   0  0  0  0  0
  1  9  1  0  0  0
  2 10  1  0  0  0
  3  6  1  0  0  0
  4 11  1  0  0  0
  5 12  1  0  0  0
  7  8  1  0  0  0
  8 13  1  0  0  0
  9 15  1  0  0  0
 10 20  1  0  0  0
 11 21  1  0  0  0
 13 16  1  0  0  0
 14 20  1  0  0  0
 22 12  1  0  0  0
 22 15  1  0  0  0
  1  4  2  0  0  0
  2  5  2  0  0  0
  3 10  2  0  0  0
  6 12  2  0  0  0
  7  9  2  0  0  0
  8 11  2  0  0  0
 13 17  2  0  0  0
 22 18  2  0  0  0
 22 19  2  0  0  0
M  CHG  1  16  -1
M  END
> <rmsd>
0.519515216

$$$$
ZINC91054398


 22 23  0  0  0  0  0  0  0  0999 V2000
    0.7339    2.4776   -2.7123 C   0  0  0  0  0
    1.5696    1.3784   -2.9097 C   0  0  0  0  0
   -3.7249   -2.5344    0.5983 C   0  0  0  0  0
   -3.2395   -2.2853   -1.7553 C   0  0  0  0  0
   -3.4975   -1.1716    0.7895 C   0  0  0  0  0
   -3.0122   -0.9223   -1.5641 C   0  0  0  0  0
   -0.1713    2.4840   -1.6511 C   0  0  0  0  0
    0.5948    0.2917   -0.9846 C   0  0  0  0  0
   -0.2409    1.3910   -0.7872 C   0  0  0  0  0
    1.5000    0.2854   -2.0458 C   0  0  0  0  0
   -3.5958   -3.0912   -0.6741 C   0  0  0  0  0
   -3.1412   -0.3655   -0.2917 C   0  0  0  0  0
   -1.0538    3.6751   -1.4647 C   0  0  0  0  0
    0.5176   -0.8800   -0.0545 C   0  0  0  0  0
   -1.1711    1.4006    0.3022 N   0  0  0  0  0
    2.3641   -0.8225   -2.2680 N   0  0  0  0  0
    3.4905   -0.8317   -1.7180 O   0  0  0  0  0
    1.9733   -1.7566   -3.0070 O   0  0  0  0  0
   -3.5912    1.7501    1.1392 O   0  0  0  0  0
   -3.1156    2.0363   -1.3085 O   0  0  0  0  0
   -3.8132   -4.4003   -0.8576 F   0  0  0  0  0
   -2.8548    1.3642   -0.0500 S   0  0  0  0  0
  1  7  1  0  0  0
  2 10  1  0  0  0
  3 11  1  0  0  0
  4  6  1  0  0  0
  5 12  1  0  0  0
  8  9  1  0  0  0
  9 15  1  0  0  0
 10 16  1  0  0  0
 11 21  1  0  0  0
 13  7  1  0  0  0
 14  8  1  0  0  0
 16 17  1  0  0  0
 22 12  1  0  0  0
 22 15  1  0  0  0
  1  2  2  0  0  0
  3  5  2  0  0  0
  4 11  2  0  0  0
  6 12  2  0  0  0
  7  9  2  0  0  0
  8 10  2  0  0  0
 16 18  2  0  0  0
 22 19  2  0  0  0
 22 20  2  0  0  0
M  CHG  2  16   1  17  -1
M  END
> <rmsd>
0.399153918

$$$$
ZINC65459391


 24 26  0  0  0  0  0  0  0  0999 V2000
   -3.7817   -3.2190   -0.6115 C   0  0  0  0  0
   -3.5311   -2.3596   -1.6811 C   0  0  0  0  0
   -3.9153   -2.7060    0.6788 C   0  0  0  0  0
    0.9384   -3.1036    1.5012 C   0  0  0  0  0
   -3.4138   -0.9873   -1.4606 C   0  0  0  0  0
   -3.7980   -1.3337    0.8993 C   0  0  0  0  0
    1.9787   -2.6172    0.7173 C   0  0  0  0  0
   -0.0309   -2.2072    1.9216 C   0  0  0  0  0
   -3.5473   -0.4743   -0.1703 C   0  0  0  0  0
    2.0173   -1.2683    0.3824 C   0  0  0  0  0
    0.9996   -0.4541    0.8527 C   0  0  0  0  0
   -3.4237    0.9671    0.0612 C   0  0  0  0  0
    3.1151   -0.7468   -0.4473 C   0  0  0  0  0
   -1.8334    3.5730    0.7512 C   0  0  0  0  0
   -2.6078    3.2251   -0.5174 C   0  0  0  0  0
   -0.3989    3.0743    0.6884 C   0  0  0  0  0
   -1.0899    1.2086   -0.8438 C   0  0  0  0  0
   -2.5127    1.7454   -0.8766 C   0  0  0  0  0
    0.9866    1.0097    0.5236 C   0  0  0  0  0
   -0.0271   -0.8903    1.6164 N   0  0  0  0  0
   -0.4018    1.5850    0.4494 N   0  0  0  0  0
    2.9761   -0.7418   -1.7278 O   0  0  0  0  0
   -3.9975    1.5797    0.9558 O   0  0  0  0  0
    4.1794   -0.3127    0.1340 O   0  0  0  0  0
  1  2  1  0  0  0
  3  6  1  0  0  0
  4  7  1  0  0  0
  5  9  1  0  0  0
  8 20  1  0  0  0
  9 12  1  0  0  0
 10 11  1  0  0  0
 10 13  1  0  0  0
 13 22  1  0  0  0
 14 15  1  0  0  0
 14 16  1  0  0  0
 15 18  1  0  0  0
 16 21  1  0  0  0
 17 18  1  0  0  0
 17 21  1  0  0  0
 18 12  1  0  0  0
 19 11  1  0  0  0
 19 21  1  0  0  0
  1  3  2  0  0  0
  2  5  2  0  0  0
  4  8  2  0  0  0
  6  9  2  0  0  0
  7 10  2  0  0  0
 11 20  2  0  0  0
 12 23  2  0  0  0
 13 24  2  0  0  0
M  CHG  2  21   1  22  -1
M  END
> <rmsd>
0.400933683

$$$$
ZINC65459391


 24 26  0  0  0  0  0  0  0  0999 V2000
   -4.0539   -3.1302   -0.7235 C   0  0  0  0  0
   -3.9108   -2.2117   -1.7634 C   0  0  0  0  0
   -4.0163   -2.6953    0.6013 C   0  0  0  0  0
    0.8884   -3.2408    0.7990 C   0  0  0  0  0
   -3.7300   -0.8583   -1.4786 C   0  0  0  0  0
   -3.8355   -1.3418    0.8861 C   0  0  0  0  0
    1.8393   -2.7280   -0.0763 C   0  0  0  0  0
    0.0021   -2.3526    1.3868 C   0  0  0  0  0
   -3.6924   -0.4233   -0.1538 C   0  0  0  0  0
    1.8742   -1.3621   -0.3335 C   0  0  0  0  0
    0.9437   -0.5580    0.3048 C   0  0  0  0  0
   -3.5021    0.9983    0.1452 C   0  0  0  0  0
    2.8777   -0.8126   -1.2591 C   0  0  0  0  0
   -1.7689    3.5240    0.7876 C   0  0  0  0  0
   -2.7002    3.2707   -0.3950 C   0  0  0  0  0
   -0.3668    3.0012    0.5205 C   0  0  0  0  0
   -1.2890    1.2480   -1.0227 C   0  0  0  0  0
   -2.6900    1.8144   -0.8496 C   0  0  0  0  0
    0.9313    0.9232    0.0664 C   0  0  0  0  0
    0.0052   -1.0197    1.1614 N   0  0  0  0  0
   -0.4395    1.5299    0.1965 N   0  0  0  0  0
    2.5851   -0.7258   -2.5105 O   0  0  0  0  0
   -3.9464    1.5659    1.1377 O   0  0  0  0  0
    4.0159   -0.4368   -0.7879 O   0  0  0  0  0
  1  2  1  0  0  0
  3  6  1  0  0  0
  4  7  1  0  0  0
  5  9  1  0  0  0
  8 20  1  0  0  0
  9 12  1  0  0  0
 10 11  1  0  0  0
 10 13  1  0  0  0
 13 22  1  0  0  0
 14 15  1  0  0  0
 14 16  1  0  0  0
 15 18  1  0  0  0
 16 21  1  0  0  0
 17 18  1  0  0  0
 17 21  1  0  0  0
 18 12  1  0  0  0
 19 11  1  0  0  0
 19 21  1  0  0  0
  1  3  2  0  0  0
  2  5  2  0  0  0
  4  8  2  0  0  0
  6  9  2  0  0  0
  7 10  2  0  0  0
 11 20  2  0  0  0
 12 23  2  0  0  0
 13 24  2  0  0  0
M  CHG  2  21   1  22  -1
M  END
> <rmsd>
0.406204104

$$$$
ZINC41638731


 21 22  0  0  0  0  0  0  0  0999 V2000
   -3.3685   -3.1401   -0.5671 C   0  0  0  0  0
   -3.5179   -1.1493    0.7932 C   0  0  0  0  0
   -2.6679   -1.0090   -1.4639 C   0  0  0  0  0
    0.1957    2.3438   -1.3284 C   0  0  0  0  0
   -3.7016   -2.5233    0.6387 C   0  0  0  0  0
   -2.8516   -2.3831   -1.6185 C   0  0  0  0  0
    1.3310    2.0181   -2.1254 C   0  0  0  0  0
   -3.0010   -0.3920   -0.2581 C   0  0  0  0  0
    1.8838    0.8079   -1.7685 C   0  0  0  0  0
   -0.0761    1.3698   -0.3928 C   0  0  0  0  0
    3.1129    0.1766   -2.4341 C   0  0  0  0  0
   -4.2539   -3.3328    1.7627 C   0  0  0  0  0
   -2.4951   -3.0428   -2.9076 C   0  0  0  0  0
    1.8438    2.8921   -3.2083 C   0  0  0  0  0
   -1.1630    1.4312    0.5470 N   0  0  0  0  0
    3.4830   -0.9378   -1.9792 O   0  0  0  0  0
    3.6374    0.8319   -3.3728 O   0  0  0  0  0
   -3.6818    1.7835    0.9787 O   0  0  0  0  0
   -2.8344    1.9579   -1.3774 O   0  0  0  0  0
    1.0349    0.0695   -0.4775 S   0  0  0  0  0
   -2.7704    1.3275   -0.0644 S   0  0  0  0  0
  1  6  1  0  0  0
  2  5  1  0  0  0
  3  8  1  0  0  0
  4  7  1  0  0  0
  9 11  1  0  0  0
  9 20  1  0  0  0
 10 15  1  0  0  0
 10 20  1  0  0  0
 11 16  1  0  0  0
 12  5  1  0  0  0
 13  6  1  0  0  0
 14  7  1  0  0  0
 21  8  1  0  0  0
 21 15  1  0  0  0
  1  5  2  0  0  0
  2  8  2  0  0  0
  3  6  2  0  0  0
  4 10  2  0  0  0
  7  9  2  0  0  0
 11 17  2  0  0  0
 21 18  2  0  0  0
 21 19  2  0  0  0
M  CHG  1  16  -1
M  END
> <rmsd>
0.437843442

$$$$
ZINC22513858


 21 22  0  0  0  0  0  0  0  0999 V2000
    0.8967    2.5329   -2.5416 C   0  0  0  0  0
    1.8628    1.5280   -2.5920 C   0  0  0  0  0
   -3.5721   -2.5265    0.5741 C   0  0  0  0  0
   -0.0862    2.5065   -1.5521 C   0  0  0  0  0
   -3.3895   -1.1532    0.7365 C   0  0  0  0  0
    0.8630    0.4702   -0.6636 C   0  0  0  0  0
   -2.9319   -2.3370   -1.7478 C   0  0  0  0  0
    1.8458    0.4966   -1.6530 C   0  0  0  0  0
   -3.3432   -3.1184   -0.6680 C   0  0  0  0  0
   -0.1031    1.4751   -0.6132 C   0  0  0  0  0
   -2.9783   -0.3718   -0.3432 C   0  0  0  0  0
   -2.7495   -0.9637   -1.5854 C   0  0  0  0  0
    2.8656   -0.5636   -1.7070 C   0  0  0  0  0
   -3.5383   -4.5867   -0.8411 C   0  0  0  0  0
   -1.1094    1.4478    0.3990 N   0  0  0  0  0
    2.8282   -1.5044   -0.8284 O   0  0  0  0  0
    3.7615   -0.5153   -2.6309 O   0  0  0  0  0
   -3.5987    1.7229    1.0544 O   0  0  0  0  0
   -2.9484    2.0343   -1.3496 O   0  0  0  0  0
   -2.7632    1.3646   -0.0766 S   0  0  0  0  0
   -2.2416   -0.0403   -2.9536 Cl  0  0  0  0  0
  1  2  1  0  0  0
  3  9  1  0  0  0
  4 10  1  0  0  0
  5 11  1  0  0  0
  6  8  1  0  0  0
  7 12  1  0  0  0
  8 13  1  0  0  0
 10 15  1  0  0  0
 12 21  1  0  0  0
 13 16  1  0  0  0
 14  9  1  0  0  0
 20 11  1  0  0  0
 20 15  1  0  0  0
  1  4  2  0  0  0
  2  8  2  0  0  0
  3  5  2  0  0  0
  6 10  2  0  0  0
  7  9  2  0  0  0
 11 12  2  0  0  0
 13 17  2  0  0  0
 20 18  2  0  0  0
 20 19  2  0  0  0
M  CHG  1  16  -1
M  END
> <rmsd>
0.508564174

$$$$
ZINC36983434


 21 22  0  0  0  0  0  0  0  0999 V2000
    0.8654    2.4963   -2.5788 C   0  0  0  0  0
   -2.8977   -2.2921   -1.7864 C   0  0  0  0  0
    1.8359    1.4953   -2.6188 C   0  0  0  0  0
   -0.1102    2.4825   -1.5818 C   0  0  0  0  0
   -2.7400   -0.9237   -1.5672 C   0  0  0  0  0
   -3.2951   -3.1248   -0.7402 C   0  0  0  0  0
    0.8552    0.4666   -0.6650 C   0  0  0  0  0
    1.8308    0.4803   -1.6619 C   0  0  0  0  0
   -3.3768   -1.2205    0.7444 C   0  0  0  0  0
   -0.1153    1.4676   -0.6250 C   0  0  0  0  0
   -2.9795   -0.3879   -0.3019 C   0  0  0  0  0
   -3.5346   -2.5891    0.5252 C   0  0  0  0  0
    2.8552   -0.5759   -1.7049 C   0  0  0  0  0
   -3.6315   -0.6385    2.1003 C   0  0  0  0  0
   -1.1141    1.4532    0.3949 N   0  0  0  0  0
    2.8288   -1.5014   -0.8098 O   0  0  0  0  0
    3.7441   -0.5395   -2.6360 O   0  0  0  0  0
   -3.5998    1.7279    1.0637 O   0  0  0  0  0
   -2.9685    2.0004   -1.3501 O   0  0  0  0  0
   -2.7708    1.3540   -0.0670 S   0  0  0  0  0
   -4.0197   -3.6559    1.7933 Cl  0  0  0  0  0
  1  3  1  0  0  0
  2  5  1  0  0  0
  4 10  1  0  0  0
  6 12  1  0  0  0
  7  8  1  0  0  0
  8 13  1  0  0  0
  9 11  1  0  0  0
 10 15  1  0  0  0
 12 21  1  0  0  0
 13 16  1  0  0  0
 14  9  1  0  0  0
 20 11  1  0  0  0
 20 15  1  0  0  0
  1  4  2  0  0  0
  2  6  2  0  0  0
  3  8  2  0  0  0
  5 11  2  0  0  0
  7 10  2  0  0  0
  9 12  2  0  0  0
 13 17  2  0  0  0
 20 18  2  0  0  0
 20 19  2  0  0  0
M  CHG  1  16  -1
M  END
> <rmsd>
0.526552439

$$$$
ZINC78624520


 21 22  0  0  0  0  0  0  0  0999 V2000
   -2.3499   -2.7860   -0.0123 C   0  0  0  0  0
   -2.9019   -1.1038   -1.6562 C   0  0  0  0  0
   -3.6498   -2.7222    0.4896 C   0  0  0  0  0
   -4.2018   -1.0399   -1.1543 C   0  0  0  0  0
   -1.9759   -1.9769   -1.0851 C   0  0  0  0  0
   -4.5757   -1.8491   -0.0815 C   0  0  0  0  0
   -0.6319   -2.0421   -1.6048 C   0  0  0  0  0
    1.4791   -1.6380   -1.9037 C   0  0  0  0  0
   -0.3335    1.0121   -0.5758 C   0  0  0  0  0
   -3.1375    2.7160    0.6906 C   0  0  0  0  0
    0.3234   -0.2716   -0.1158 C   0  0  0  0  0
   -1.6871    2.9022    0.3086 C   0  0  0  0  0
   -0.2093   -2.8375   -2.5615 N   0  0  0  0  0
    1.1337   -2.5803   -2.7517 N   0  0  0  0  0
    0.3983   -1.2694   -1.1616 N   0  0  0  0  0
   -3.8648    3.8806    0.5691 N   0  0  0  0  0
   -0.9763    1.6553    0.4719 N   0  0  0  0  0
   -0.2934    1.4153   -1.7352 O   0  0  0  0  0
   -3.6251    1.6402    1.0267 O   0  0  0  0  0
    3.0294   -0.9676   -1.7422 S   0  0  0  0  0
   -6.1803   -1.7716    0.5358 Cl  0  0  0  0  0
  1  3  1  0  0  0
  2  5  1  0  0  0
  4  6  1  0  0  0
  5  7  1  0  0  0
  6 21  1  0  0  0
  7 15  1  0  0  0
  8 14  1  0  0  0
  8 15  1  0  0  0
  9 17  1  0  0  0
 10 16  1  0  0  0
 11  9  1  0  0  0
 11 15  1  0  0  0
 12 10  1  0  0  0
 12 17  1  0  0  0
 13 14  1  0  0  0
  1  5  2  0  0  0
  2  4  2  0  0  0
  3  6  2  0  0  0
  7 13  2  0  0  0
  8 20  2  0  0  0
  9 18  2  0  0  0
 10 19  2  0  0  0
M  CHG  1  20  -1
M  END
> <rmsd>
0.529334724

$$$$
ZINC03152691


 22 23  0  0  0  0  0  0  0  0999 V2000
    0.8775    1.9656   -2.5652 C   0  0  0  0  0
   -0.1216    2.1443   -1.6084 C   0  0  0  0  0
    1.8296    0.9596   -2.3998 C   0  0  0  0  0
    0.7834    0.3112   -0.3207 C   0  0  0  0  0
   -0.1687    1.3172   -0.4862 C   0  0  0  0  0
    1.7825    0.1325   -1.2775 C   0  0  0  0  0
   -3.0581   -0.3622   -0.2854 C   0  0  0  0  0
   -3.9118   -0.8096   -1.2240 C   0  0  0  0  0
   -2.3013   -1.3300    0.5563 C   0  0  0  0  0
   -3.4364   -3.1468   -0.6811 C   0  0  0  0  0
   -4.7466    0.0317   -2.1518 C   0  0  0  0  0
   -4.0884   -2.1662   -1.4085 N   0  0  0  0  0
   -2.5582   -2.6642    0.2844 N   0  0  0  0  0
   -1.2010    1.5025    0.5025 N   0  0  0  0  0
    2.7514   -0.8919   -1.1103 N   0  0  0  0  0
    3.6409   -1.0361   -1.9835 O   0  0  0  0  0
   -1.5123   -0.9580    1.4206 O   0  0  0  0  0
   -3.6171   -4.3500   -0.8721 O   0  0  0  0  0
    2.6919   -1.6251   -0.0937 O   0  0  0  0  0
   -2.9706    1.9990   -1.3397 O   0  0  0  0  0
   -3.6948    1.7479    1.0470 O   0  0  0  0  0
   -2.8363    1.3309   -0.0532 S   0  0  0  0  0
  1  3  1  0  0  0
  2  5  1  0  0  0
  4  6  1  0  0  0
  5 14  1  0  0  0
  6 15  1  0  0  0
  7  9  1  0  0  0
  8 12  1  0  0  0
  9 13  1  0  0  0
 10 12  1  0  0  0
 10 13  1  0  0  0
 11  8  1  0  0  0
 15 16  1  0  0  0
 22  7  1  0  0  0
 22 14  1  0  0  0
  1  2  2  0  0  0
  3  6  2  0  0  0
  4  5  2  0  0  0
  7  8  2  0  0  0
  9 17  2  0  0  0
 10 18  2  0  0  0
 15 19  2  0  0  0
 22 20  2  0  0  0
 22 21  2  0  0  0
M  CHG  2  15   1  16  -1
M  END
> <rmsd>
0.431586921

$$$$
ZINC13411734


 24 26  0  0  0  0  0  0  0  0999 V2000
    5.8942   -1.0585    1.7455 C   0  0  0  0  0
   -3.2314   -2.1441   -0.6215 C   0  0  0  0  0
   -4.3877   -2.0069    0.1425 C   0  0  0  0  0
    5.3754    0.0011    2.4896 C   0  0  0  0  0
    5.4406   -1.2865    0.4463 C   0  0  0  0  0
   -2.3972   -1.0451   -0.8285 C   0  0  0  0  0
   -4.7088   -0.7721    0.7040 C   0  0  0  0  0
    4.4028    0.8327    1.9344 C   0  0  0  0  0
    4.4681   -0.4549   -0.1088 C   0  0  0  0  0
   -2.7094    0.2041   -0.2705 C   0  0  0  0  0
   -3.8683    0.3279    0.5090 C   0  0  0  0  0
    3.9491    0.6048    0.6351 C   0  0  0  0  0
    4.0000   -0.7104   -1.4828 C   0  0  0  0  0
    0.6285    1.7972   -0.1920 C   0  0  0  0  0
   -2.5255    2.6846   -0.1565 C   0  0  0  0  0
   -3.2736    2.5212    1.1593 C   0  0  0  0  0
   -1.8053    1.3844   -0.5125 C   0  0  0  0  0
    1.7504    1.4996    0.7797 C   0  0  0  0  0
   -0.5729    1.2493    0.2297 N   0  0  0  0  0
    2.9955   -1.4957   -1.6572 O   0  0  0  0  0
    4.6123   -0.1397   -2.4602 O   0  0  0  0  0
    0.7953    2.4483   -1.2197 O   0  0  0  0  0
   -4.2754    1.5028    1.0870 O   0  0  0  0  0
    2.9895    1.4351    0.1061 O   0  0  0  0  0
  1  4  1  0  0  0
  2  3  1  0  0  0
  5  9  1  0  0  0
  6 10  1  0  0  0
  7 11  1  0  0  0
  8 12  1  0  0  0
  9 13  1  0  0  0
 11 23  1  0  0  0
 12 24  1  0  0  0
 13 20  1  0  0  0
 14 19  1  0  0  0
 15 16  1  0  0  0
 15 17  1  0  0  0
 16 23  1  0  0  0
 17 10  1  0  0  0
 17 19  1  0  0  0
 18 14  1  0  0  0
 18 24  1  0  0  0
  1  5  2  0  0  0
  2  6  2  0  0  0
  3  7  2  0  0  0
  4  8  2  0  0  0
  9 12  2  0  0  0
 10 11  2  0  0  0
 13 21  2  0  0  0
 14 22  2  0  0  0
M  CHG  1  20  -1
M  END
> <rmsd>
0.525388956

$$$$
ZINC13411734


 24 26  0  0  0  0  0  0  0  0999 V2000
    6.1122   -0.4393    1.7485 C   0  0  0  0  0
   -2.8698   -2.0875   -0.8329 C   0  0  0  0  0
   -4.0429   -2.0850   -0.0823 C   0  0  0  0  0
    5.5028    0.5317    2.5430 C   0  0  0  0  0
    5.6943   -0.6255    0.4308 C   0  0  0  0  0
   -2.1216   -0.9171   -0.9623 C   0  0  0  0  0
   -4.4667   -0.9137    0.5434 C   0  0  0  0  0
    4.4752    1.3165    2.0198 C   0  0  0  0  0
    4.6668    0.1594   -0.0924 C   0  0  0  0  0
   -2.5376    0.2695   -0.3391 C   0  0  0  0  0
   -3.7124    0.2575    0.4261 C   0  0  0  0  0
    4.0572    1.1305    0.7020 C   0  0  0  0  0
    4.2376   -0.0509   -1.4866 C   0  0  0  0  0
    0.6642    2.1087   -0.1124 C   0  0  0  0  0
   -2.5497    2.7459   -0.0802 C   0  0  0  0  0
   -3.2993    2.4485    1.2111 C   0  0  0  0  0
   -1.7256    1.5283   -0.4977 C   0  0  0  0  0
    1.7936    1.8425    0.8598 C   0  0  0  0  0
   -0.4959    1.4458    0.2566 N   0  0  0  0  0
    3.2998   -0.9000   -1.7228 O   0  0  0  0  0
    4.8157    0.6215   -2.4191 O   0  0  0  0  0
    0.7925    2.8296   -1.0981 O   0  0  0  0  0
   -4.2174    1.3617    1.0634 O   0  0  0  0  0
    3.0423    1.9136    0.2050 O   0  0  0  0  0
  1  4  1  0  0  0
  2  3  1  0  0  0
  5  9  1  0  0  0
  6 10  1  0  0  0
  7 11  1  0  0  0
  8 12  1  0  0  0
  9 13  1  0  0  0
 11 23  1  0  0  0
 12 24  1  0  0  0
 13 20  1  0  0  0
 14 19  1  0  0  0
 15 16  1  0  0  0
 15 17  1  0  0  0
 16 23  1  0  0  0
 17 10  1  0  0  0
 17 19  1  0  0  0
 18 14  1  0  0  0
 18 24  1  0  0  0
  1  5  2  0  0  0
  2  6  2  0  0  0
  3  7  2  0  0  0
  4  8  2  0  0  0
  9 12  2  0  0  0
 10 11  2  0  0  0
 13 21  2  0  0  0
 14 22  2  0  0  0
M  CHG  1  20  -1
M  END
> <rmsd>
0.576175034

$$$$
ZINC00571015


 23 25  0  0  0  0  0  0  0  0999 V2000
   -3.8679   -3.3232    0.0878 C   0  0  0  0  0
   -3.7145   -2.3079    1.0271 C   0  0  0  0  0
   -2.8083   -0.1860   -3.4768 C   0  0  0  0  0
   -3.6820   -3.0542   -1.2684 C   0  0  0  0  0
   -3.3744   -1.0195    0.6139 C   0  0  0  0  0
   -3.1483   -1.4744   -3.0634 C   0  0  0  0  0
    1.6332    1.7815   -1.7085 C   0  0  0  0  0
    1.6950   -0.4156   -0.7056 C   0  0  0  0  0
    0.5145    2.1012   -0.9392 C   0  0  0  0  0
    0.5762   -0.0959    0.0638 C   0  0  0  0  0
   -2.6548    0.8295   -2.5375 C   0  0  0  0  0
   -3.3394   -1.7631   -1.7024 C   0  0  0  0  0
   -3.1834   -0.7306   -0.7472 C   0  0  0  0  0
    2.2234    0.5229   -1.5917 C   0  0  0  0  0
   -0.0140    1.1626   -0.0531 C   0  0  0  0  0
   -2.8409    0.5605   -1.1812 C   0  0  0  0  0
    3.4046    0.1858   -2.4029 C   0  0  0  0  0
   -1.1684    1.4915    0.7389 N   0  0  0  0  0
    3.9305   -0.9829   -2.2757 O   0  0  0  0  0
    3.8732    1.0706   -3.2127 O   0  0  0  0  0
   -3.7170    1.8644    0.8824 O   0  0  0  0  0
   -2.4198    3.1150   -0.8650 O   0  0  0  0  0
   -2.6242    1.9102   -0.0768 S   0  0  0  0  0
  1  2  1  0  0  0
  3  6  1  0  0  0
  4 12  1  0  0  0
  5 13  1  0  0  0
  7 14  1  0  0  0
  8 10  1  0  0  0
  9 15  1  0  0  0
 11 16  1  0  0  0
 12 13  1  0  0  0
 14 17  1  0  0  0
 15 18  1  0  0  0
 17 19  1  0  0  0
 23 16  1  0  0  0
 23 18  1  0  0  0
  1  4  2  0  0  0
  2  5  2  0  0  0
  3 11  2  0  0  0
  6 12  2  0  0  0
  7  9  2  0  0  0
  8 14  2  0  0  0
 10 15  2  0  0  0
 13 16  2  0  0  0
 17 20  2  0  0  0
 23 21  2  0  0  0
 23 22  2  0  0  0
M  CHG  1  19  -1
M  END
> <rmsd>
0.467022806

$$$$
ZINC05657988


 24 25  0  0  0  0  0  0  0  0999 V2000
    1.2988   -1.0067   -0.8049 C   0  0  0  0  0
    2.4069    1.1064   -1.1844 C   0  0  0  0  0
   -3.2307   -2.2217    0.7644 C   0  0  0  0  0
   -3.5638   -1.4490   -1.5003 C   0  0  0  0  0
    0.2693   -0.3464   -0.1342 C   0  0  0  0  0
    1.3774    1.7667   -0.5137 C   0  0  0  0  0
   -3.5023   -0.9395    1.2418 C   0  0  0  0  0
   -3.8355   -0.1668   -1.0230 C   0  0  0  0  0
    2.3676   -0.2803   -1.3299 C   0  0  0  0  0
   -3.2613   -2.4764   -0.6067 C   0  0  0  0  0
    0.3086    1.0403    0.0114 C   0  0  0  0  0
   -3.8048    0.0879    0.3482 C   0  0  0  0  0
    3.4533   -0.9772   -2.0385 C   0  0  0  0  0
   -0.8552    3.0771    0.9276 C   0  0  0  0  0
   -1.4871   -4.0570   -1.4071 C   0  0  0  0  0
   -2.9712   -3.8472   -1.1170 C   0  0  0  0  0
   -2.1340    3.3775    1.6995 C   0  0  0  0  0
   -3.3438    3.6449    0.8091 C   0  0  0  0  0
   -3.7328    2.4342   -0.0326 C   0  0  0  0  0
   -0.7353    1.7102    0.6929 N   0  0  0  0  0
    4.4284   -0.2833   -2.5141 O   0  0  0  0  0
    3.3922   -2.2579   -2.1598 O   0  0  0  0  0
   -0.0659    3.9589    0.6054 O   0  0  0  0  0
   -4.0725    1.3469    0.8182 O   0  0  0  0  0
  1  9  1  0  0  0
  2  6  1  0  0  0
  3 10  1  0  0  0
  4  8  1  0  0  0
  5 11  1  0  0  0
  7 12  1  0  0  0
  9 13  1  0  0  0
 11 20  1  0  0  0
 12 24  1  0  0  0
 13 21  1  0  0  0
 14 20  1  0  0  0
 15 16  1  0  0  0
 16 10  1  0  0  0
 17 14  1  0  0  0
 17 18  1  0  0  0
 18 19  1  0  0  0
 19 24  1  0  0  0
  1  5  2  0  0  0
  2  9  2  0  0  0
  3  7  2  0  0  0
  4 10  2  0  0  0
  6 11  2  0  0  0
  8 12  2  0  0  0
 13 22  2  0  0  0
 14 23  2  0  0  0
M  CHG  1  21  -1
M  END
> <rmsd>
0.414865166

$$$$
ZINC64872984


 24 25  0  0  0  0  0  0  0  0999 V2000
    1.3005   -1.0079   -0.7964 C   0  0  0  0  0
    2.4035    1.1053   -1.1898 C   0  0  0  0  0
   -3.5654   -1.4357   -1.5054 C   0  0  0  0  0
    0.2714   -0.3460   -0.1265 C   0  0  0  0  0
    1.3745    1.7671   -0.5199 C   0  0  0  0  0
   -3.8385   -0.1586   -1.0155 C   0  0  0  0  0
   -3.2213   -2.2277    0.7510 C   0  0  0  0  0
    2.3665   -0.2822   -1.3280 C   0  0  0  0  0
   -3.2569   -2.4703   -0.6222 C   0  0  0  0  0
   -3.4944   -0.9506    1.2409 C   0  0  0  0  0
    0.3085    1.0414    0.0118 C   0  0  0  0  0
   -3.8031    0.0840    0.3577 C   0  0  0  0  0
    3.4520   -0.9800   -2.0356 C   0  0  0  0  0
   -0.8578    3.0811    0.9184 C   0  0  0  0  0
   -2.9663   -3.8358   -1.1463 C   0  0  0  0  0
   -3.4532   -0.7088    2.7138 C   0  0  0  0  0
   -2.1364    3.3834    1.6900 C   0  0  0  0  0
   -3.3475    3.6442    0.7994 C   0  0  0  0  0
   -3.7353    2.4284   -0.0356 C   0  0  0  0  0
   -0.7359    1.7132    0.6908 N   0  0  0  0  0
    4.4245   -0.2862   -2.5172 O   0  0  0  0  0
    3.3939   -2.2615   -2.1504 O   0  0  0  0  0
   -0.0703    3.9624    0.5908 O   0  0  0  0  0
   -4.0724    1.3450    0.8213 O   0  0  0  0  0
  1  8  1  0  0  0
  2  5  1  0  0  0
  3  9  1  0  0  0
  4 11  1  0  0  0
  6 12  1  0  0  0
  7 10  1  0  0  0
  8 13  1  0  0  0
 11 20  1  0  0  0
 12 24  1  0  0  0
 13 21  1  0  0  0
 14 20  1  0  0  0
 15  9  1  0  0  0
 16 10  1  0  0  0
 17 14  1  0  0  0
 17 18  1  0  0  0
 18 19  1  0  0  0
 19 24  1  0  0  0
  1  4  2  0  0  0
  2  8  2  0  0  0
  3  6  2  0  0  0
  5 11  2  0  0  0
  7  9  2  0  0  0
 10 12  2  0  0  0
 13 22  2  0  0  0
 14 23  2  0  0  0
M  CHG  1  21  -1
M  END
> <rmsd>
0.415461391

$$$$
ZINC00207292


 21 22  0  0  0  0  0  0  0  0999 V2000
   -0.0363    2.7635   -1.2886 C   0  0  0  0  0
    1.0239    2.8792   -2.1874 C   0  0  0  0  0
   -3.2111   -1.2123    0.6629 C   0  0  0  0  0
   -2.3850   -0.8643   -1.5807 C   0  0  0  0  0
   -3.2494   -2.5879    0.4354 C   0  0  0  0  0
   -2.4233   -2.2400   -1.8083 C   0  0  0  0  0
    0.9947    0.8028   -0.3246 C   0  0  0  0  0
    2.0550    0.9184   -1.2235 C   0  0  0  0  0
   -0.0510    1.7254   -0.3571 C   0  0  0  0  0
    2.0697    1.9567   -2.1549 C   0  0  0  0  0
   -2.7789   -0.3505   -0.3453 C   0  0  0  0  0
   -2.8556   -3.1018   -0.8001 C   0  0  0  0  0
    3.1520   -0.0648   -1.1751 C   0  0  0  0  0
   -1.1365    1.6073    0.5627 N   0  0  0  0  0
    3.0587   -1.1300   -1.8912 O   0  0  0  0  0
    4.1646    0.1760   -0.4184 O   0  0  0  0  0
   -3.6875    1.6739    0.9973 O   0  0  0  0  0
   -2.8570    2.0596   -1.3396 O   0  0  0  0  0
    3.0966    2.0866   -3.0413 O   0  0  0  0  0
   -2.7300    1.3951   -0.0567 S   0  0  0  0  0
   -2.8999   -4.7992   -1.0799 Cl  0  0  0  0  0
  1  9  1  0  0  0
  2 10  1  0  0  0
  3  5  1  0  0  0
  4 11  1  0  0  0
  6 12  1  0  0  0
  7  8  1  0  0  0
  8 13  1  0  0  0
  9 14  1  0  0  0
 10 19  1  0  0  0
 12 21  1  0  0  0
 13 15  1  0  0  0
 20 11  1  0  0  0
 20 14  1  0  0  0
  1  2  2  0  0  0
  3 11  2  0  0  0
  4  6  2  0  0  0
  5 12  2  0  0  0
  7  9  2  0  0  0
  8 10  2  0  0  0
 13 16  2  0  0  0
 20 17  2  0  0  0
 20 18  2  0  0  0
M  CHG  1  15  -1
M  END
> <rmsd>
0.70422399

$$$$
ZINC00207292


 21 22  0  0  0  0  0  0  0  0999 V2000
   -0.1049    2.4979   -1.5727 C   0  0  0  0  0
    0.8718    2.5200   -2.5681 C   0  0  0  0  0
   -3.3788   -1.1945    0.7388 C   0  0  0  0  0
   -2.7431   -0.9377   -1.5780 C   0  0  0  0  0
   -3.5442   -2.5653    0.5414 C   0  0  0  0  0
   -2.9085   -2.3086   -1.7753 C   0  0  0  0  0
    0.8582    0.4734   -0.6724 C   0  0  0  0  0
    1.8350    0.4953   -1.6679 C   0  0  0  0  0
   -0.1118    1.4747   -0.6248 C   0  0  0  0  0
    1.8418    1.5187   -2.6158 C   0  0  0  0  0
   -2.9782   -0.3806   -0.3210 C   0  0  0  0  0
   -3.3091   -3.1224   -0.7155 C   0  0  0  0  0
    2.8526   -0.5703   -1.7035 C   0  0  0  0  0
   -1.1118    1.4524    0.3940 N   0  0  0  0  0
    2.6105   -1.6329   -2.3879 O   0  0  0  0  0
    3.9474   -0.4011   -1.0486 O   0  0  0  0  0
   -3.5979    1.7238    1.0623 O   0  0  0  0  0
   -2.9637    2.0167   -1.3484 O   0  0  0  0  0
    2.7878    1.5576   -3.5960 O   0  0  0  0  0
   -2.7682    1.3589   -0.0707 S   0  0  0  0  0
   -3.5101   -4.8142   -0.9584 Cl  0  0  0  0  0
  1  9  1  0  0  0
  2 10  1  0  0  0
  3  5  1  0  0  0
  4 11  1  0  0  0
  6 12  1  0  0  0
  7  8  1  0  0  0
  8 13  1  0  0  0
  9 14  1  0  0  0
 10 19  1  0  0  0
 12 21  1  0  0  0
 13 15  1  0  0  0
 20 11  1  0  0  0
 20 14  1  0  0  0
  1  2  2  0  0  0
  3 11  2  0  0  0
  4  6  2  0  0  0
  5 12  2  0  0  0
  7  9  2  0  0  0
  8 10  2  0  0  0
 13 16  2  0  0  0
 20 17  2  0  0  0
 20 18  2  0  0  0
M  CHG  1  15  -1
M  END
> <rmsd>
0.523499668

$$$$
ZINC47496142


 23 25  0  0  0  0  0  0  0  0999 V2000
   -2.8115   -0.1974   -3.4756 C   0  0  0  0  0
   -3.1504   -1.4841   -3.0579 C   0  0  0  0  0
    1.6313    1.7813   -1.7108 C   0  0  0  0  0
    1.6946   -0.4147   -0.7054 C   0  0  0  0  0
    0.5128    2.1013   -0.9413 C   0  0  0  0  0
    0.5761   -0.0946    0.0641 C   0  0  0  0  0
   -2.6576    0.8221   -2.5390 C   0  0  0  0  0
   -3.3752   -1.0256    0.6127 C   0  0  0  0  0
   -3.7109   -2.3238    0.9654 C   0  0  0  0  0
   -3.6782   -3.0288   -1.2202 C   0  0  0  0  0
   -3.3385   -1.7599   -1.6935 C   0  0  0  0  0
   -3.1835   -0.7304   -0.7421 C   0  0  0  0  0
    2.2222    0.5233   -1.5928 C   0  0  0  0  0
   -0.0148    1.1634   -0.0539 C   0  0  0  0  0
   -2.8419    0.5594   -1.1804 C   0  0  0  0  0
    3.4031    0.1857   -2.4042 C   0  0  0  0  0
   -3.8675   -3.3338    0.0834 N   0  0  0  0  0
   -1.1690    1.4927    0.7383 N   0  0  0  0  0
    3.9296   -0.9825   -2.2759 O   0  0  0  0  0
    3.8710    1.0698   -3.2152 O   0  0  0  0  0
   -3.7177    1.8646    0.8825 O   0  0  0  0  0
   -2.4219    3.1144   -0.8663 O   0  0  0  0  0
   -2.6254    1.9097   -0.0775 S   0  0  0  0  0
  1  2  1  0  0  0
  3 13  1  0  0  0
  4  6  1  0  0  0
  5 14  1  0  0  0
  7 15  1  0  0  0
  8 12  1  0  0  0
  9 17  1  0  0  0
 10 11  1  0  0  0
 11 12  1  0  0  0
 13 16  1  0  0  0
 14 18  1  0  0  0
 16 19  1  0  0  0
 23 15  1  0  0  0
 23 18  1  0  0  0
  1  7  2  0  0  0
  2 11  2  0  0  0
  3  5  2  0  0  0
  4 13  2  0  0  0
  6 14  2  0  0  0
  8  9  2  0  0  0
 10 17  2  0  0  0
 12 15  2  0  0  0
 16 20  2  0  0  0
 23 21  2  0  0  0
 23 22  2  0  0  0
M  CHG  1  19  -1
M  END
> <rmsd>
0.467417032

$$$$
ZINC00266572


 23 25  0  0  0  0  0  0  0  0999 V2000
   -2.8114   -0.2204   -3.4811 C   0  0  0  0  0
   -3.8581   -3.2341    0.1649 C   0  0  0  0  0
   -3.1528   -1.4951   -3.0381 C   0  0  0  0  0
   -3.6819   -3.0190   -1.1944 C   0  0  0  0  0
    1.6359    1.7825   -1.7010 C   0  0  0  0  0
    1.6965   -0.4205   -0.7111 C   0  0  0  0  0
    0.5144    2.0965   -0.9334 C   0  0  0  0  0
    0.5751   -0.1064    0.0566 C   0  0  0  0  0
   -2.6541    0.8068   -2.5591 C   0  0  0  0  0
   -3.6820   -2.1570    1.0095 C   0  0  0  0  0
   -3.3381   -1.7456   -1.6678 C   0  0  0  0  0
    2.2269    0.5239   -1.5900 C   0  0  0  0  0
   -3.1802   -0.7073   -0.7260 C   0  0  0  0  0
   -0.0159    1.1521   -0.0545 C   0  0  0  0  0
   -2.8384    0.5575   -1.1968 C   0  0  0  0  0
    3.4108    0.1926   -2.3995 C   0  0  0  0  0
   -3.3503   -0.9131    0.5937 N   0  0  0  0  0
   -1.1731    1.4753    0.7359 N   0  0  0  0  0
    3.9374   -0.9763   -2.2776 O   0  0  0  0  0
    3.8812    1.0827   -3.2026 O   0  0  0  0  0
   -3.7223    1.8456    0.8733 O   0  0  0  0  0
   -2.4201    3.1099   -0.8603 O   0  0  0  0  0
   -2.6265    1.8975   -0.0831 S   0  0  0  0  0
  1  3  1  0  0  0
  2 10  1  0  0  0
  4 11  1  0  0  0
  5 12  1  0  0  0
  6  8  1  0  0  0
  7 14  1  0  0  0
  9 15  1  0  0  0
 11 13  1  0  0  0
 12 16  1  0  0  0
 13 17  1  0  0  0
 14 18  1  0  0  0
 16 19  1  0  0  0
 23 15  1  0  0  0
 23 18  1  0  0  0
  1  9  2  0  0  0
  2  4  2  0  0  0
  3 11  2  0  0  0
  5  7  2  0  0  0
  6 12  2  0  0  0
  8 14  2  0  0  0
 10 17  2  0  0  0
 13 15  2  0  0  0
 16 20  2  0  0  0
 23 21  2  0  0  0
 23 22  2  0  0  0
M  CHG  1  19  -1
M  END
> <rmsd>
0.439988256

$$$$
ZINC92684703


 24 26  0  0  0  0  0  0  0  0999 V2000
   -4.3491   -2.0862    0.0526 C   0  0  0  0  0
    1.4362    1.1688    0.4564 C   0  0  0  0  0
    2.6470    0.8108   -0.1363 C   0  0  0  0  0
   -4.6527   -0.9270    0.7690 C   0  0  0  0  0
    0.2971    0.7867   -1.6397 C   0  0  0  0  0
   -2.5428   -0.9439   -1.1144 C   0  0  0  0  0
    1.5079    0.4288   -2.2325 C   0  0  0  0  0
   -2.8572    0.2003   -0.4026 C   0  0  0  0  0
   -3.3022   -2.0942   -0.8844 C   0  0  0  0  0
    0.2612    1.1567   -0.2953 C   0  0  0  0  0
    2.6829    0.4408   -1.4807 C   0  0  0  0  0
   -3.8974    0.2015    0.5161 C   0  0  0  0  0
    1.5059    0.0444   -3.6390 C   0  0  0  0  0
   -3.2668    2.3258    0.3565 C   0  0  0  0  0
   -2.1999    1.5284   -0.4038 C   0  0  0  0  0
   -2.9940   -3.3466   -1.6353 C   0  0  0  0  0
    0.6240   -1.5191   -5.2060 C   0  0  0  0  0
   -0.9422    1.5109    0.2946 N   0  0  0  0  0
    3.9301    0.0771   -2.0612 N   0  0  0  0  0
    4.2883   -1.1234   -2.0224 O   0  0  0  0  0
    2.1456    0.6276   -4.5213 O   0  0  0  0  0
    4.6325    0.9681   -2.5936 O   0  0  0  0  0
   -4.0695    1.4095    1.1436 O   0  0  0  0  0
    0.7078   -1.0433   -3.8583 O   0  0  0  0  0
  1  9  1  0  0  0
  2 10  1  0  0  0
  3 11  1  0  0  0
  4 12  1  0  0  0
  5  7  1  0  0  0
  6  8  1  0  0  0
  7 13  1  0  0  0
 10 18  1  0  0  0
 11 19  1  0  0  0
 12 23  1  0  0  0
 13 24  1  0  0  0
 14 15  1  0  0  0
 14 23  1  0  0  0
 15  8  1  0  0  0
 15 18  1  0  0  0
 16  9  1  0  0  0
 17 24  1  0  0  0
 19 20  1  0  0  0
  1  4  2  0  0  0
  2  3  2  0  0  0
  5 10  2  0  0  0
  6  9  2  0  0  0
  7 11  2  0  0  0
  8 12  2  0  0  0
 13 21  2  0  0  0
 19 22  2  0  0  0
M  CHG  2  19   1  20  -1
M  END
> <rmsd>
0.557894647

$$$$
ZINC92684703


 24 26  0  0  0  0  0  0  0  0999 V2000
   -4.3497   -2.0859    0.0522 C   0  0  0  0  0
    1.4357    1.1689    0.4564 C   0  0  0  0  0
    2.6465    0.8110   -0.1364 C   0  0  0  0  0
   -4.6533   -0.9267    0.7686 C   0  0  0  0  0
    0.2966    0.7871   -1.6398 C   0  0  0  0  0
   -2.5433   -0.9435   -1.1147 C   0  0  0  0  0
    1.5075    0.4291   -2.2326 C   0  0  0  0  0
   -2.8577    0.2007   -0.4028 C   0  0  0  0  0
   -3.3028   -2.0938   -0.8848 C   0  0  0  0  0
    0.2607    1.1569   -0.2953 C   0  0  0  0  0
    2.6824    0.4411   -1.4808 C   0  0  0  0  0
   -3.8980    0.2018    0.5159 C   0  0  0  0  0
    1.5054    0.0449   -3.6391 C   0  0  0  0  0
   -3.2673    2.3261    0.3564 C   0  0  0  0  0
   -2.2004    1.5288   -0.4039 C   0  0  0  0  0
   -2.9946   -3.3461   -1.6358 C   0  0  0  0  0
    0.9940    0.8006   -5.8403 C   0  0  0  0  0
   -0.9427    1.5111    0.2945 N   0  0  0  0  0
    3.9296    0.0773   -2.0612 N   0  0  0  0  0
    4.2878   -1.1231   -2.0226 O   0  0  0  0  0
    1.8726   -1.0576   -4.0605 O   0  0  0  0  0
    4.6321    0.9684   -2.5936 O   0  0  0  0  0
   -4.0700    1.4097    1.1435 O   0  0  0  0  0
    1.0449    1.0579   -4.4329 O   0  0  0  0  0
  1  9  1  0  0  0
  2 10  1  0  0  0
  3 11  1  0  0  0
  4 12  1  0  0  0
  5  7  1  0  0  0
  6  8  1  0  0  0
  7 13  1  0  0  0
 10 18  1  0  0  0
 11 19  1  0  0  0
 12 23  1  0  0  0
 13 24  1  0  0  0
 14 15  1  0  0  0
 14 23  1  0  0  0
 15  8  1  0  0  0
 15 18  1  0  0  0
 16  9  1  0  0  0
 17 24  1  0  0  0
 19 20  1  0  0  0
  1  4  2  0  0  0
  2  3  2  0  0  0
  5 10  2  0  0  0
  6  9  2  0  0  0
  7 11  2  0  0  0
  8 12  2  0  0  0
 13 21  2  0  0  0
 19 22  2  0  0  0
M  CHG  2  19   1  20  -1
M  END
> <rmsd>
0.55795902

$$$$
ZINC92684703


 24 26  0  0  0  0  0  0  0  0999 V2000
   -4.2924   -2.1088    0.0758 C   0  0  0  0  0
    1.2789    0.5945    0.7093 C   0  0  0  0  0
    2.5210    0.2266    0.1922 C   0  0  0  0  0
   -4.6398   -0.9302    0.7387 C   0  0  0  0  0
    0.5891    1.3446   -1.4813 C   0  0  0  0  0
   -2.4325   -0.9905   -1.0286 C   0  0  0  0  0
    1.8313    0.9767   -1.9984 C   0  0  0  0  0
   -2.7903    0.1729   -0.3703 C   0  0  0  0  0
   -3.1971   -2.1384   -0.8036 C   0  0  0  0  0
    0.3129    1.1534   -0.1275 C   0  0  0  0  0
    2.7972    0.4178   -1.1616 C   0  0  0  0  0
   -3.8780    0.1951    0.4914 C   0  0  0  0  0
    2.0825    1.1884   -3.4190 C   0  0  0  0  0
   -3.2508    2.3178    0.2996 C   0  0  0  0  0
   -2.1408    1.5048   -0.3779 C   0  0  0  0  0
   -2.8429   -3.4111   -1.4979 C   0  0  0  0  0
    3.4879    2.3159   -4.9782 C   0  0  0  0  0
   -0.9220    1.5173    0.3864 N   0  0  0  0  0
    4.0707    0.0314   -1.6652 N   0  0  0  0  0
    4.2217   -1.1350   -2.0982 O   0  0  0  0  0
    1.4205    0.6744   -4.3275 O   0  0  0  0  0
    5.0028    0.8693   -1.6606 O   0  0  0  0  0
   -4.0895    1.4206    1.0711 O   0  0  0  0  0
    3.1420    2.0283   -3.6190 O   0  0  0  0  0
  1  9  1  0  0  0
  2 10  1  0  0  0
  3 11  1  0  0  0
  4 12  1  0  0  0
  5  7  1  0  0  0
  6  8  1  0  0  0
  7 13  1  0  0  0
 10 18  1  0  0  0
 11 19  1  0  0  0
 12 23  1  0  0  0
 13 24  1  0  0  0
 14 15  1  0  0  0
 14 23  1  0  0  0
 15  8  1  0  0  0
 15 18  1  0  0  0
 16  9  1  0  0  0
 17 24  1  0  0  0
 19 20  1  0  0  0
  1  4  2  0  0  0
  2  3  2  0  0  0
  5 10  2  0  0  0
  6  9  2  0  0  0
  7 11  2  0  0  0
  8 12  2  0  0  0
 13 21  2  0  0  0
 19 22  2  0  0  0
M  CHG  2  19   1  20  -1
M  END
> <rmsd>
0.535315275

$$$$
ZINC02254500


 22 22  0  0  0  0  0  0  0  0999 V2000
   -2.8213   -2.3094   -0.9755 C   0  0  0  0  0
   -4.5671   -1.1258    0.2026 C   0  0  0  0  0
   -3.6238   -3.4494   -1.0198 C   0  0  0  0  0
   -5.3697   -2.2658    0.1584 C   0  0  0  0  0
   -3.2928   -1.1476   -0.3643 C   0  0  0  0  0
   -4.8980   -3.4276   -0.4528 C   0  0  0  0  0
   -2.7988    1.2253    0.2441 C   0  0  0  0  0
   -1.6842    2.2173    0.0996 C   0  0  0  0  0
    2.9220    0.4311   -1.8516 C   0  0  0  0  0
    2.0251    0.7956   -0.6639 C   0  0  0  0  0
    1.5656    2.2504   -0.5832 C   0  0  0  0  0
    0.7097    2.5573    0.6433 C   0  0  0  0  0
   -5.4469   -5.6295    0.9453 N   0  0  0  0  0
   -2.4796    0.0081   -0.3195 N   0  0  0  0  0
   -0.5036    1.7882    0.6717 N   0  0  0  0  0
    3.1984   -0.8000   -1.9366 O   0  0  0  0  0
   -3.7978    1.6041    0.8324 O   0  0  0  0  0
   -1.9162    3.2556   -0.4987 O   0  0  0  0  0
    3.2642    1.3821   -2.6066 O   0  0  0  0  0
   -7.2946   -4.4412   -0.4037 O   0  0  0  0  0
   -5.4744   -5.6784   -1.6302 O   0  0  0  0  0
   -5.9020   -4.8545   -0.5080 S   0  0  0  0  0
  1  3  1  0  0  0
  2  5  1  0  0  0
  4  6  1  0  0  0
  5 14  1  0  0  0
  7  8  1  0  0  0
  7 14  1  0  0  0
  8 15  1  0  0  0
  9 16  1  0  0  0
 10  9  1  0  0  0
 10 11  1  0  0  0
 11 12  1  0  0  0
 12 15  1  0  0  0
 22  6  1  0  0  0
 22 13  1  0  0  0
  1  5  2  0  0  0
  2  4  2  0  0  0
  3  6  2  0  0  0
  7 17  2  0  0  0
  8 18  2  0  0  0
  9 19  2  0  0  0
 22 20  2  0  0  0
 22 21  2  0  0  0
M  CHG  1  16  -1
M  END
> <rmsd>
0.598259211

$$$$
ZINC02254500


 22 22  0  0  0  0  0  0  0  0999 V2000
   -2.8215   -2.3094   -0.9754 C   0  0  0  0  0
   -4.5673   -1.1257    0.2028 C   0  0  0  0  0
   -3.6241   -3.4493   -1.0196 C   0  0  0  0  0
   -5.3700   -2.2658    0.1586 C   0  0  0  0  0
   -3.2930   -1.1476   -0.3641 C   0  0  0  0  0
   -4.8983   -3.4275   -0.4526 C   0  0  0  0  0
   -2.7990    1.2253    0.2442 C   0  0  0  0  0
   -1.6844    2.2173    0.0997 C   0  0  0  0  0
    2.9217    0.4311   -1.8515 C   0  0  0  0  0
    2.0249    0.7956   -0.6639 C   0  0  0  0  0
    1.5654    2.2504   -0.5831 C   0  0  0  0  0
    0.7095    2.5573    0.6434 C   0  0  0  0  0
   -6.7322   -4.6124   -1.9816 N   0  0  0  0  0
   -2.4798    0.0082   -0.3194 N   0  0  0  0  0
   -0.5038    1.7883    0.6718 N   0  0  0  0  0
    3.1982   -0.8000   -1.9365 O   0  0  0  0  0
   -3.7980    1.6041    0.8326 O   0  0  0  0  0
   -1.9164    3.2556   -0.4986 O   0  0  0  0  0
    3.2640    1.3821   -2.6065 O   0  0  0  0  0
   -5.0386   -6.0194   -0.6409 O   0  0  0  0  0
   -6.8623   -4.7875    0.5854 O   0  0  0  0  0
   -5.9022   -4.8545   -0.5077 S   0  0  0  0  0
  1  3  1  0  0  0
  2  5  1  0  0  0
  4  6  1  0  0  0
  5 14  1  0  0  0
  7  8  1  0  0  0
  7 14  1  0  0  0
  8 15  1  0  0  0
  9 16  1  0  0  0
 10  9  1  0  0  0
 10 11  1  0  0  0
 11 12  1  0  0  0
 12 15  1  0  0  0
 22  6  1  0  0  0
 22 13  1  0  0  0
  1  5  2  0  0  0
  2  4  2  0  0  0
  3  6  2  0  0  0
  7 17  2  0  0  0
  8 18  2  0  0  0
  9 19  2  0  0  0
 22 20  2  0  0  0
 22 21  2  0  0  0
M  CHG  1  16  -1
M  END
> <rmsd>
0.598370075

$$$$
ZINC13166955


 24 25  0  0  0  0  0  0  0  0999 V2000
    1.2987   -1.0067   -0.8042 C   0  0  0  0  0
    2.4066    1.1064   -1.1846 C   0  0  0  0  0
    0.2693   -0.3462   -0.1337 C   0  0  0  0  0
    1.3771    1.7669   -0.5140 C   0  0  0  0  0
   -3.2298   -2.2216    0.7640 C   0  0  0  0  0
   -3.5630   -1.4479   -1.5003 C   0  0  0  0  0
   -3.5021   -0.9399    1.2421 C   0  0  0  0  0
   -3.8353   -0.1660   -1.0222 C   0  0  0  0  0
    2.3674   -0.2803   -1.3296 C   0  0  0  0  0
    0.3084    1.0406    0.0114 C   0  0  0  0  0
   -3.2603   -2.4756   -0.6072 C   0  0  0  0  0
   -3.8049    0.0879    0.3490 C   0  0  0  0  0
    3.4531   -0.9774   -2.0381 C   0  0  0  0  0
   -0.8555    3.0776    0.9272 C   0  0  0  0  0
   -2.6920   -4.7297   -0.1050 C   0  0  0  0  0
   -2.1342    3.3781    1.6991 C   0  0  0  0  0
   -3.3441    3.6451    0.8087 C   0  0  0  0  0
   -3.7331    2.4341   -0.0325 C   0  0  0  0  0
   -0.7354    1.7106    0.6929 N   0  0  0  0  0
    4.4281   -0.2836   -2.5140 O   0  0  0  0  0
    3.3921   -2.2581   -2.1589 O   0  0  0  0  0
   -0.0663    3.9593    0.6046 O   0  0  0  0  0
   -2.9942   -3.7264   -1.0734 O   0  0  0  0  0
   -4.0726    1.3470    0.8187 O   0  0  0  0  0
  1  9  1  0  0  0
  2  4  1  0  0  0
  3 10  1  0  0  0
  5 11  1  0  0  0
  6  8  1  0  0  0
  7 12  1  0  0  0
  9 13  1  0  0  0
 10 19  1  0  0  0
 11 23  1  0  0  0
 12 24  1  0  0  0
 13 20  1  0  0  0
 14 19  1  0  0  0
 15 23  1  0  0  0
 16 14  1  0  0  0
 16 17  1  0  0  0
 17 18  1  0  0  0
 18 24  1  0  0  0
  1  3  2  0  0  0
  2  9  2  0  0  0
  4 10  2  0  0  0
  5  7  2  0  0  0
  6 11  2  0  0  0
  8 12  2  0  0  0
 13 21  2  0  0  0
 14 22  2  0  0  0
M  CHG  1  20  -1
M  END
> <rmsd>
0.414723366

$$$$
ZINC00552359


 23 25  0  0  0  0  0  0  0  0999 V2000
   -2.7796   -5.1852   -1.8641 C   0  0  0  0  0
   -2.1793   -4.4307   -2.8676 C   0  0  0  0  0
    1.6653    2.5882   -1.4431 C   0  0  0  0  0
   -3.2525   -4.5615   -0.7092 C   0  0  0  0  0
   -2.0496   -3.0494   -2.7202 C   0  0  0  0  0
   -3.6006   -2.5276    0.6118 C   0  0  0  0  0
    0.5214    2.6296   -0.6460 C   0  0  0  0  0
    2.2912    1.3687   -1.7020 C   0  0  0  0  0
   -3.4708   -1.1464    0.7594 C   0  0  0  0  0
   -2.3976   -1.0156   -1.3991 C   0  0  0  0  0
    0.6294    0.2323   -0.3665 C   0  0  0  0  0
   -3.1303   -3.1722   -0.5439 C   0  0  0  0  0
   -2.5198   -2.4049   -1.5644 C   0  0  0  0  0
    0.0035    1.4516   -0.1077 C   0  0  0  0  0
    1.7733    0.1908   -1.1637 C   0  0  0  0  0
   -2.8705   -0.3919   -0.2442 C   0  0  0  0  0
   -1.1756    1.4947    0.7145 N   0  0  0  0  0
    2.4102   -1.0501   -1.4284 N   0  0  0  0  0
    3.4375   -1.0650   -2.1489 O   0  0  0  0  0
    1.9289   -2.0985   -0.9344 O   0  0  0  0  0
   -3.7342    1.7800    0.8796 O   0  0  0  0  0
   -2.6538    1.9462   -1.3797 O   0  0  0  0  0
   -2.7082    1.3362   -0.0568 S   0  0  0  0  0
  1  2  1  0  0  0
  3  8  1  0  0  0
  4 12  1  0  0  0
  5 13  1  0  0  0
  6 12  1  0  0  0
  7 14  1  0  0  0
  9 16  1  0  0  0
 10 13  1  0  0  0
 11 15  1  0  0  0
 14 17  1  0  0  0
 15 18  1  0  0  0
 18 19  1  0  0  0
 23 16  1  0  0  0
 23 17  1  0  0  0
  1  4  2  0  0  0
  2  5  2  0  0  0
  3  7  2  0  0  0
  6  9  2  0  0  0
  8 15  2  0  0  0
 10 16  2  0  0  0
 11 14  2  0  0  0
 12 13  2  0  0  0
 18 20  2  0  0  0
 23 21  2  0  0  0
 23 22  2  0  0  0
M  CHG  2  18   1  19  -1
M  END
> <rmsd>
0.561119437

$$$$
ZINC24433360


 21 22  0  0  0  0  0  0  0  0999 V2000
    1.9175    1.5733   -2.4962 C   0  0  0  0  0
    1.0024    2.6220   -2.4040 C   0  0  0  0  0
    0.8251    0.4580   -0.6524 C   0  0  0  0  0
   -2.6383   -1.0837   -1.5372 C   0  0  0  0  0
    1.8287    0.4913   -1.6204 C   0  0  0  0  0
   -0.0900    1.5067   -0.5602 C   0  0  0  0  0
   -0.0013    2.5888   -1.4361 C   0  0  0  0  0
   -2.9091   -0.4264   -0.3025 C   0  0  0  0  0
   -2.8329   -2.4448   -1.4524 C   0  0  0  0  0
   -3.3008   -1.3101    0.6791 C   0  0  0  0  0
    2.7943   -0.6150   -1.7179 C   0  0  0  0  0
   -2.6585   -3.4671   -2.5066 C   0  0  0  0  0
   -3.6695   -1.0369    2.0866 C   0  0  0  0  0
   -1.1161    1.4710    0.4320 N   0  0  0  0  0
    2.6909   -1.6023   -0.8972 O   0  0  0  0  0
    3.7114   -0.5598   -2.6205 O   0  0  0  0  0
   -3.6260    1.6799    1.0301 O   0  0  0  0  0
   -2.9358    1.9545   -1.3673 O   0  0  0  0  0
   -0.8761    3.6015   -1.3564 F   0  0  0  0  0
   -3.3404   -2.9251    0.1110 S   0  0  0  0  0
   -2.7559    1.3221   -0.0746 S   0  0  0  0  0
  1  5  1  0  0  0
  2  7  1  0  0  0
  3  6  1  0  0  0
  4  8  1  0  0  0
  5 11  1  0  0  0
  6 14  1  0  0  0
  7 19  1  0  0  0
  9 20  1  0  0  0
 10 20  1  0  0  0
 11 15  1  0  0  0
 12  9  1  0  0  0
 13 10  1  0  0  0
 21  8  1  0  0  0
 21 14  1  0  0  0
  1  2  2  0  0  0
  3  5  2  0  0  0
  4  9  2  0  0  0
  6  7  2  0  0  0
  8 10  2  0  0  0
 11 16  2  0  0  0
 21 17  2  0  0  0
 21 18  2  0  0  0
M  CHG  1  15  -1
M  END
> <rmsd>
0.581567466

$$$$
ZINC12526154


 21 22  0  0  0  0  0  0  0  0999 V2000
    0.8963    2.5326   -2.5422 C   0  0  0  0  0
    1.8623    1.5276   -2.5926 C   0  0  0  0  0
   -0.0866    2.5063   -1.5526 C   0  0  0  0  0
   -3.5720   -2.5268    0.5743 C   0  0  0  0  0
   -3.3895   -1.1536    0.7367 C   0  0  0  0  0
    0.8628    0.4701   -0.6639 C   0  0  0  0  0
   -2.9322   -2.3372   -1.7478 C   0  0  0  0  0
    1.8457    0.4965   -1.6535 C   0  0  0  0  0
   -0.1033    1.4750   -0.6136 C   0  0  0  0  0
   -3.3434   -3.1186   -0.6680 C   0  0  0  0  0
   -2.9784   -0.3721   -0.3431 C   0  0  0  0  0
   -2.7497   -0.9638   -1.5853 C   0  0  0  0  0
    2.8653   -0.5639   -1.7074 C   0  0  0  0  0
   -1.1095    1.4478    0.3987 N   0  0  0  0  0
    2.8281   -1.5045   -0.8287 O   0  0  0  0  0
    3.7611   -0.5156   -2.6314 O   0  0  0  0  0
   -3.5987    1.7227    1.0544 O   0  0  0  0  0
   -2.9486    2.0340   -1.3497 O   0  0  0  0  0
   -3.5175   -4.4374   -0.8235 F   0  0  0  0  0
   -2.7633    1.3645   -0.0767 S   0  0  0  0  0
   -2.2383   -0.0419   -2.9533 Cl  0  0  0  0  0
  1  2  1  0  0  0
  3  9  1  0  0  0
  4 10  1  0  0  0
  5 11  1  0  0  0
  6  8  1  0  0  0
  7 12  1  0  0  0
  8 13  1  0  0  0
  9 14  1  0  0  0
 10 19  1  0  0  0
 12 21  1  0  0  0
 13 15  1  0  0  0
 20 11  1  0  0  0
 20 14  1  0  0  0
  1  3  2  0  0  0
  2  8  2  0  0  0
  4  5  2  0  0  0
  6  9  2  0  0  0
  7 10  2  0  0  0
 11 12  2  0  0  0
 13 16  2  0  0  0
 20 17  2  0  0  0
 20 18  2  0  0  0
M  CHG  1  15  -1
M  END
> <rmsd>
0.508358836

$$$$
ZINC00284250


 23 25  0  0  0  0  0  0  0  0999 V2000
   -2.9562    0.1164   -3.5879 C   0  0  0  0  0
    1.4054    2.4403   -1.9902 C   0  0  0  0  0
   -3.3780   -3.2663   -0.1455 C   0  0  0  0  0
   -3.1287   -1.2179   -3.2314 C   0  0  0  0  0
   -3.3420   -2.9285   -1.4907 C   0  0  0  0  0
    0.3273    2.5709   -1.1150 C   0  0  0  0  0
    2.1284    1.2481   -2.0333 C   0  0  0  0  0
   -2.8239    1.0798   -2.5956 C   0  0  0  0  0
    0.6951    0.3173   -0.3257 C   0  0  0  0  0
   -3.2388   -2.2454    0.7727 C   0  0  0  0  0
   -3.1695   -1.5927   -1.8776 C   0  0  0  0  0
   -3.0360   -0.6199   -0.8649 C   0  0  0  0  0
   -0.0279    1.5094   -0.2827 C   0  0  0  0  0
    1.7733    0.1867   -1.2009 C   0  0  0  0  0
   -2.8643    0.7070   -1.2498 C   0  0  0  0  0
   -3.0704   -0.9447    0.4413 N   0  0  0  0  0
   -1.1393    1.6445    0.6200 N   0  0  0  0  0
    2.5089   -1.0268   -1.2460 N   0  0  0  0  0
    3.4747   -1.1234   -2.0414 O   0  0  0  0  0
    2.1738   -1.9697   -0.4888 O   0  0  0  0  0
   -3.6915    1.7283    0.9860 O   0  0  0  0  0
   -2.6765    3.2556   -0.7278 O   0  0  0  0  0
   -2.6928    1.9713   -0.0444 S   0  0  0  0  0
  1  4  1  0  0  0
  2  7  1  0  0  0
  3 10  1  0  0  0
  5 11  1  0  0  0
  6 13  1  0  0  0
  8 15  1  0  0  0
  9 14  1  0  0  0
 11 12  1  0  0  0
 12 16  1  0  0  0
 13 17  1  0  0  0
 14 18  1  0  0  0
 18 19  1  0  0  0
 23 15  1  0  0  0
 23 17  1  0  0  0
  1  8  2  0  0  0
  2  6  2  0  0  0
  3  5  2  0  0  0
  4 11  2  0  0  0
  7 14  2  0  0  0
  9 13  2  0  0  0
 10 16  2  0  0  0
 12 15  2  0  0  0
 18 20  2  0  0  0
 23 21  2  0  0  0
 23 22  2  0  0  0
M  CHG  2  18   1  19  -1
M  END
> <rmsd>
0.510693252

$$$$
ZINC00284250


 23 25  0  0  0  0  0  0  0  0999 V2000
   -2.9129   -2.3164   -1.6913 C   0  0  0  0  0
    1.6609    2.5845   -1.4537 C   0  0  0  0  0
   -3.4539   -2.8441    3.0941 C   0  0  0  0  0
   -3.1092   -3.1446   -0.5899 C   0  0  0  0  0
   -3.3827   -3.4115    1.8299 C   0  0  0  0  0
    0.5179    2.6284   -0.6553 C   0  0  0  0  0
    2.2876    1.3646   -1.7080 C   0  0  0  0  0
   -2.7924   -0.9450   -1.5053 C   0  0  0  0  0
    0.6285    0.2324   -0.3654 C   0  0  0  0  0
   -3.3240   -1.4733    3.1865 C   0  0  0  0  0
   -3.1857   -2.6010    0.7037 C   0  0  0  0  0
   -3.0644   -1.2094    0.9000 C   0  0  0  0  0
    0.0018    1.4523   -0.1112 C   0  0  0  0  0
    1.7714    0.1885   -1.1639 C   0  0  0  0  0
   -2.8684   -0.4048   -0.2191 C   0  0  0  0  0
   -3.1329   -0.6561    2.1256 N   0  0  0  0  0
   -1.1764    1.4979    0.7122 N   0  0  0  0  0
    2.4093   -1.0530   -1.4239 N   0  0  0  0  0
    3.4357   -1.0700   -2.1457 O   0  0  0  0  0
    1.9295   -2.0996   -0.9249 O   0  0  0  0  0
   -3.7352    1.7770    0.8828 O   0  0  0  0  0
   -2.6630    1.9208   -1.3820 O   0  0  0  0  0
   -2.7101    1.3352   -0.0510 S   0  0  0  0  0
  1  4  1  0  0  0
  2  7  1  0  0  0
  3 10  1  0  0  0
  5 11  1  0  0  0
  6 13  1  0  0  0
  8 15  1  0  0  0
  9 14  1  0  0  0
 11 12  1  0  0  0
 12 16  1  0  0  0
 13 17  1  0  0  0
 14 18  1  0  0  0
 18 19  1  0  0  0
 23 15  1  0  0  0
 23 17  1  0  0  0
  1  8  2  0  0  0
  2  6  2  0  0  0
  3  5  2  0  0  0
  4 11  2  0  0  0
  7 14  2  0  0  0
  9 13  2  0  0  0
 10 16  2  0  0  0
 12 15  2  0  0  0
 18 20  2  0  0  0
 23 21  2  0  0  0
 23 22  2  0  0  0
M  CHG  2  18   1  19  -1
M  END
> <rmsd>
0.56515044

$$$$
ZINC73353687


 23 24  0  0  0  0  0  0  0  0999 V2000
   -4.1499   -2.6610   -3.0324 C   0  0  0  0  0
    0.6826    2.4604   -2.7353 C   0  0  0  0  0
   -3.6056   -3.0914   -0.6878 C   0  0  0  0  0
    1.5271    1.3684   -2.9348 C   0  0  0  0  0
   -3.2238   -2.6325    0.5729 C   0  0  0  0  0
   -0.2091    2.4657   -1.6627 C   0  0  0  0  0
   -3.5293   -0.8299   -1.5342 C   0  0  0  0  0
   -3.7583   -2.1902   -1.7413 C   0  0  0  0  0
    1.4799    0.2816   -2.0618 C   0  0  0  0  0
   -2.9948   -1.2723    0.7799 C   0  0  0  0  0
    0.5881    0.2867   -0.9892 C   0  0  0  0  0
   -0.2564    1.3789   -0.7897 C   0  0  0  0  0
   -3.1476   -0.3709   -0.2736 C   0  0  0  0  0
    2.3829   -0.8605   -2.2945 C   0  0  0  0  0
   -2.5872   -0.8144    2.1423 C   0  0  0  0  0
    0.5376   -0.8796   -0.0524 C   0  0  0  0  0
   -4.4679   -3.0436   -4.0809 N   0  0  0  0  0
   -1.1840    1.4055    0.3091 N   0  0  0  0  0
    3.5451   -0.8508   -1.7426 O   0  0  0  0  0
    1.9768   -1.8263   -3.0415 O   0  0  0  0  0
   -3.6002    1.7542    1.1425 O   0  0  0  0  0
   -3.1278    2.0235   -1.3077 O   0  0  0  0  0
   -2.8675    1.3418   -0.0473 S   0  0  0  0  0
  2  4  1  0  0  0
  3  8  1  0  0  0
  5 10  1  0  0  0
  6 12  1  0  0  0
  7 13  1  0  0  0
  8  1  1  0  0  0
  9 11  1  0  0  0
  9 14  1  0  0  0
 12 18  1  0  0  0
 14 19  1  0  0  0
 15 10  1  0  0  0
 16 11  1  0  0  0
 23 13  1  0  0  0
 23 18  1  0  0  0
  2  6  2  0  0  0
  3  5  2  0  0  0
  4  9  2  0  0  0
  7  8  2  0  0  0
 10 13  2  0  0  0
 11 12  2  0  0  0
 14 20  2  0  0  0
 23 21  2  0  0  0
 23 22  2  0  0  0
  1 17  3  0  0  0
M  CHG  1  19  -1
M  END
> <rmsd>
0.392242849

$$$$
ZINC73353687


 23 24  0  0  0  0  0  0  0  0999 V2000
   -3.5078   -2.7441   -3.1315 C   0  0  0  0  0
    1.0111    2.6130   -2.3882 C   0  0  0  0  0
   -3.1931   -3.1321   -0.7379 C   0  0  0  0  0
    1.9241    1.5630   -2.4855 C   0  0  0  0  0
   -2.9690   -2.6468    0.5505 C   0  0  0  0  0
    0.0122    2.5807   -1.4152 C   0  0  0  0  0
   -3.1384   -0.8749   -1.5977 C   0  0  0  0  0
   -3.2778   -2.2462   -1.8119 C   0  0  0  0  0
    1.8383    0.4807   -1.6098 C   0  0  0  0  0
   -2.8297   -1.2756    0.7647 C   0  0  0  0  0
    0.8393    0.4483   -0.6368 C   0  0  0  0  0
   -0.0738    1.4984   -0.5395 C   0  0  0  0  0
   -2.9144   -0.3895   -0.3093 C   0  0  0  0  0
    2.8154   -0.6165   -1.7334 C   0  0  0  0  0
   -2.5906   -0.7893    2.1569 C   0  0  0  0  0
    0.7473   -0.7131    0.3029 C   0  0  0  0  0
   -3.6946   -3.1486   -4.2031 N   0  0  0  0  0
   -1.1121    1.4859    0.4556 N   0  0  0  0  0
    3.9112   -0.5455   -1.0628 O   0  0  0  0  0
    2.5378   -1.6060   -2.5076 O   0  0  0  0  0
   -3.6168    1.7193    1.0269 O   0  0  0  0  0
   -2.9026    1.9962   -1.3632 O   0  0  0  0  0
   -2.7436    1.3363   -0.0746 S   0  0  0  0  0
  2  4  1  0  0  0
  3  8  1  0  0  0
  5 10  1  0  0  0
  6 12  1  0  0  0
  7 13  1  0  0  0
  8  1  1  0  0  0
  9 11  1  0  0  0
  9 14  1  0  0  0
 12 18  1  0  0  0
 14 19  1  0  0  0
 15 10  1  0  0  0
 16 11  1  0  0  0
 23 13  1  0  0  0
 23 18  1  0  0  0
  2  6  2  0  0  0
  3  5  2  0  0  0
  4  9  2  0  0  0
  7  8  2  0  0  0
 10 13  2  0  0  0
 11 12  2  0  0  0
 14 20  2  0  0  0
 23 21  2  0  0  0
 23 22  2  0  0  0
  1 17  3  0  0  0
M  CHG  1  19  -1
M  END
> <rmsd>
0.568699896

$$$$
ZINC76937308


 23 24  0  0  0  0  0  0  0  0999 V2000
   -3.3408   -4.5360   -0.9606 C   0  0  0  0  0
    1.0104    2.6132   -2.3886 C   0  0  0  0  0
   -3.2790   -2.2449   -1.8127 C   0  0  0  0  0
    1.9237    1.5635   -2.4857 C   0  0  0  0  0
    0.0115    2.5810   -1.4155 C   0  0  0  0  0
   -3.1390   -0.8739   -1.5974 C   0  0  0  0  0
   -2.9696   -2.6475    0.5492 C   0  0  0  0  0
   -3.1943   -3.1318   -0.7394 C   0  0  0  0  0
    1.8381    0.4814   -1.6096 C   0  0  0  0  0
   -2.8295   -1.2765    0.7646 C   0  0  0  0  0
    0.8392    0.4490   -0.6366 C   0  0  0  0  0
   -0.0741    1.4989   -0.5395 C   0  0  0  0  0
   -2.9142   -0.3897   -0.3088 C   0  0  0  0  0
    2.8156   -0.6157   -1.7329 C   0  0  0  0  0
   -2.5877   -0.7903    2.1563 C   0  0  0  0  0
    0.7476   -0.7122    0.3035 C   0  0  0  0  0
   -3.4598   -5.6762   -1.1402 N   0  0  0  0  0
   -1.1123    1.4863    0.4555 N   0  0  0  0  0
    3.9114   -0.5442   -1.0625 O   0  0  0  0  0
    2.5382   -1.6054   -2.5070 O   0  0  0  0  0
   -3.6171    1.7192    1.0270 O   0  0  0  0  0
   -2.9031    1.9958   -1.3633 O   0  0  0  0  0
   -2.7438    1.3362   -0.0746 S   0  0  0  0  0
  2  4  1  0  0  0
  3  8  1  0  0  0
  5 12  1  0  0  0
  6 13  1  0  0  0
  7 10  1  0  0  0
  8  1  1  0  0  0
  9 11  1  0  0  0
  9 14  1  0  0  0
 12 18  1  0  0  0
 14 19  1  0  0  0
 15 10  1  0  0  0
 16 11  1  0  0  0
 23 13  1  0  0  0
 23 18  1  0  0  0
  2  5  2  0  0  0
  3  6  2  0  0  0
  4  9  2  0  0  0
  7  8  2  0  0  0
 10 13  2  0  0  0
 11 12  2  0  0  0
 14 20  2  0  0  0
 23 21  2  0  0  0
 23 22  2  0  0  0
  1 17  3  0  0  0
M  CHG  1  19  -1
M  END
> <rmsd>
0.568356454

$$$$
ZINC76937308


 23 24  0  0  0  0  0  0  0  0999 V2000
   -3.8457   -4.4838   -0.9025 C   0  0  0  0  0
    0.6821    2.4603   -2.7356 C   0  0  0  0  0
   -3.7597   -2.1889   -1.7420 C   0  0  0  0  0
    1.5268    1.3684   -2.9349 C   0  0  0  0  0
   -0.2096    2.4658   -1.6630 C   0  0  0  0  0
   -3.5298   -0.8289   -1.5339 C   0  0  0  0  0
   -3.2247   -2.6332    0.5717 C   0  0  0  0  0
   -3.6072   -3.0911   -0.6891 C   0  0  0  0  0
    1.4799    0.2818   -2.0616 C   0  0  0  0  0
   -2.9948   -1.2732    0.7798 C   0  0  0  0  0
    0.5881    0.2871   -0.9890 C   0  0  0  0  0
   -0.2566    1.3791   -0.7897 C   0  0  0  0  0
   -3.1474   -0.3711   -0.2731 C   0  0  0  0  0
    2.3831   -0.8602   -2.2940 C   0  0  0  0  0
   -2.5845   -0.8155    2.1414 C   0  0  0  0  0
    0.5379   -0.8791   -0.0519 C   0  0  0  0  0
   -4.0395   -5.6148   -1.0757 N   0  0  0  0  0
   -1.1841    1.4058    0.3090 N   0  0  0  0  0
    3.5454   -0.8501   -1.7423 O   0  0  0  0  0
    1.9772   -1.8262   -3.0408 O   0  0  0  0  0
   -3.6004    1.7542    1.1425 O   0  0  0  0  0
   -3.1281    2.0230   -1.3078 O   0  0  0  0  0
   -2.8677    1.3416   -0.0472 S   0  0  0  0  0
  2  4  1  0  0  0
  3  8  1  0  0  0
  5 12  1  0  0  0
  6 13  1  0  0  0
  7 10  1  0  0  0
  8  1  1  0  0  0
  9 11  1  0  0  0
  9 14  1  0  0  0
 12 18  1  0  0  0
 14 19  1  0  0  0
 15 10  1  0  0  0
 16 11  1  0  0  0
 23 13  1  0  0  0
 23 18  1  0  0  0
  2  5  2  0  0  0
  3  6  2  0  0  0
  4  9  2  0  0  0
  7  8  2  0  0  0
 10 13  2  0  0  0
 11 12  2  0  0  0
 14 20  2  0  0  0
 23 21  2  0  0  0
 23 22  2  0  0  0
  1 17  3  0  0  0
M  CHG  1  19  -1
M  END
> <rmsd>
0.392254621

$$$$
ZINC73353687


 23 24  0  0  0  0  0  0  0  0999 V2000
   -3.9541   -3.3667    1.6256 C   0  0  0  0  0
    1.0313    2.6344   -2.3604 C   0  0  0  0  0
   -3.2131   -3.1293   -0.6925 C   0  0  0  0  0
    1.9411    1.5824   -2.4656 C   0  0  0  0  0
   -2.7732   -2.3329   -1.7499 C   0  0  0  0  0
    0.0274    2.5943   -1.3929 C   0  0  0  0  0
   -3.3551   -1.1747    0.7205 C   0  0  0  0  0
   -3.5041   -2.5502    0.5426 C   0  0  0  0  0
    1.8470    0.4902   -1.6032 C   0  0  0  0  0
   -2.6243   -0.9575   -1.5720 C   0  0  0  0  0
    0.8430    0.4499   -0.6356 C   0  0  0  0  0
   -0.0668    1.5020   -0.5305 C   0  0  0  0  0
   -2.9153   -0.3783   -0.3369 C   0  0  0  0  0
    2.8208   -0.6090   -1.7349 C   0  0  0  0  0
   -2.1513   -0.1338   -2.7251 C   0  0  0  0  0
    0.7422   -0.7222    0.2898 C   0  0  0  0  0
   -4.3197   -4.0299    2.5049 N   0  0  0  0  0
   -1.1102    1.4815    0.4592 N   0  0  0  0  0
    3.9134   -0.5500   -1.0580 O   0  0  0  0  0
    2.5436   -1.5883   -2.5221 O   0  0  0  0  0
   -3.6169    1.7171    1.0207 O   0  0  0  0  0
   -2.8897    2.0197   -1.3624 O   0  0  0  0  0
   -2.7395    1.3440   -0.0809 S   0  0  0  0  0
  2  4  1  0  0  0
  3  8  1  0  0  0
  5 10  1  0  0  0
  6 12  1  0  0  0
  7 13  1  0  0  0
  8  1  1  0  0  0
  9 11  1  0  0  0
  9 14  1  0  0  0
 12 18  1  0  0  0
 14 19  1  0  0  0
 15 10  1  0  0  0
 16 11  1  0  0  0
 23 13  1  0  0  0
 23 18  1  0  0  0
  2  6  2  0  0  0
  3  5  2  0  0  0
  4  9  2  0  0  0
  7  8  2  0  0  0
 10 13  2  0  0  0
 11 12  2  0  0  0
 14 20  2  0  0  0
 23 21  2  0  0  0
 23 22  2  0  0  0
  1 17  3  0  0  0
M  CHG  1  19  -1
M  END
> <rmsd>
0.559347451

$$$$
ZINC73353687


 23 24  0  0  0  0  0  0  0  0999 V2000
   -4.1203   -3.3184    1.7365 C   0  0  0  0  0
    0.7033    2.4880   -2.7104 C   0  0  0  0  0
   -3.6174   -3.0873   -0.6452 C   0  0  0  0  0
    1.5444    1.3952   -2.9194 C   0  0  0  0  0
   -3.2534   -2.2994   -1.7372 C   0  0  0  0  0
   -0.1936    2.4835   -1.6421 C   0  0  0  0  0
   -3.5139   -1.1462    0.7896 C   0  0  0  0  0
   -3.7478   -2.5106    0.6182 C   0  0  0  0  0
    1.4887    0.2978   -2.0602 C   0  0  0  0  0
   -3.0196   -0.9351   -1.5658 C   0  0  0  0  0
    0.5918    0.2932   -0.9919 C   0  0  0  0  0
   -0.2494    1.3862   -0.7829 C   0  0  0  0  0
   -3.1499   -0.3583   -0.3024 C   0  0  0  0  0
    2.3884   -0.8448   -2.3027 C   0  0  0  0  0
   -2.6314   -0.1203   -2.7563 C   0  0  0  0  0
    0.5322   -0.8844   -0.0699 C   0  0  0  0  0
   -4.4228   -3.9745    2.6447 N   0  0  0  0  0
   -1.1822    1.4029    0.3117 N   0  0  0  0  0
    3.5480   -0.8466   -1.7452 O   0  0  0  0  0
    1.9822   -1.7997   -3.0635 O   0  0  0  0  0
   -3.6010    1.7508    1.1378 O   0  0  0  0  0
   -3.1157    2.0485   -1.3066 O   0  0  0  0  0
   -2.8642    1.3502   -0.0535 S   0  0  0  0  0
  2  4  1  0  0  0
  3  8  1  0  0  0
  5 10  1  0  0  0
  6 12  1  0  0  0
  7 13  1  0  0  0
  8  1  1  0  0  0
  9 11  1  0  0  0
  9 14  1  0  0  0
 12 18  1  0  0  0
 14 19  1  0  0  0
 15 10  1  0  0  0
 16 11  1  0  0  0
 23 13  1  0  0  0
 23 18  1  0  0  0
  2  6  2  0  0  0
  3  5  2  0  0  0
  4  9  2  0  0  0
  7  8  2  0  0  0
 10 13  2  0  0  0
 11 12  2  0  0  0
 14 20  2  0  0  0
 23 21  2  0  0  0
 23 22  2  0  0  0
  1 17  3  0  0  0
M  CHG  1  19  -1
M  END
> <rmsd>
0.385307461

$$$$
ZINC76937308


 23 24  0  0  0  0  0  0  0  0999 V2000
   -3.3624   -4.5388   -0.8701 C   0  0  0  0  0
    1.0321    2.6353   -2.3595 C   0  0  0  0  0
   -3.5033   -2.5489    0.5438 C   0  0  0  0  0
    1.9418    1.5832   -2.4649 C   0  0  0  0  0
    0.0280    2.5949   -1.3921 C   0  0  0  0  0
   -3.3545   -1.1733    0.7205 C   0  0  0  0  0
   -2.7731   -2.3335   -1.7491 C   0  0  0  0  0
   -3.2125   -3.1291   -0.6909 C   0  0  0  0  0
    1.8474    0.4906   -1.6029 C   0  0  0  0  0
   -2.6243   -0.9578   -1.5725 C   0  0  0  0  0
    0.8433    0.4501   -0.6355 C   0  0  0  0  0
   -0.0664    1.5023   -0.5301 C   0  0  0  0  0
   -2.9151   -0.3778   -0.3377 C   0  0  0  0  0
    2.8212   -0.6087   -1.7348 C   0  0  0  0  0
   -2.1537   -0.1336   -2.7261 C   0  0  0  0  0
    0.7422   -0.7224    0.2895 C   0  0  0  0  0
   -3.4841   -5.6837   -1.0156 N   0  0  0  0  0
   -1.1099    1.4815    0.4593 N   0  0  0  0  0
    3.9137   -0.5499   -1.0578 O   0  0  0  0  0
    2.5440   -1.5876   -2.5225 O   0  0  0  0  0
   -3.6167    1.7172    1.0206 O   0  0  0  0  0
   -2.8891    2.0206   -1.3622 O   0  0  0  0  0
   -2.7392    1.3444   -0.0811 S   0  0  0  0  0
  2  4  1  0  0  0
  3  8  1  0  0  0
  5 12  1  0  0  0
  6 13  1  0  0  0
  7 10  1  0  0  0
  8  1  1  0  0  0
  9 11  1  0  0  0
  9 14  1  0  0  0
 12 18  1  0  0  0
 14 19  1  0  0  0
 15 10  1  0  0  0
 16 11  1  0  0  0
 23 13  1  0  0  0
 23 18  1  0  0  0
  2  5  2  0  0  0
  3  6  2  0  0  0
  4  9  2  0  0  0
  7  8  2  0  0  0
 10 13  2  0  0  0
 11 12  2  0  0  0
 14 20  2  0  0  0
 23 21  2  0  0  0
 23 22  2  0  0  0
  1 17  3  0  0  0
M  CHG  1  19  -1
M  END
> <rmsd>
0.559280515

$$$$
ZINC76937308


 23 24  0  0  0  0  0  0  0  0999 V2000
   -3.8532   -4.4857   -0.8166 C   0  0  0  0  0
    0.7041    2.4888   -2.7097 C   0  0  0  0  0
   -3.7467   -2.5094    0.6193 C   0  0  0  0  0
    1.5452    1.3959   -2.9190 C   0  0  0  0  0
   -0.1929    2.4841   -1.6415 C   0  0  0  0  0
   -3.5131   -1.1449    0.7896 C   0  0  0  0  0
   -3.2532   -2.3000   -1.7365 C   0  0  0  0  0
   -3.6167   -3.0871   -0.6437 C   0  0  0  0  0
    1.4892    0.2982   -2.0601 C   0  0  0  0  0
   -3.0197   -0.9354   -1.5663 C   0  0  0  0  0
    0.5921    0.2935   -0.9920 C   0  0  0  0  0
   -0.2490    1.3864   -0.7827 C   0  0  0  0  0
   -3.1497   -0.3579   -0.3032 C   0  0  0  0  0
    2.3888   -0.8445   -2.3029 C   0  0  0  0  0
   -2.6339   -0.1200   -2.7570 C   0  0  0  0  0
    0.5322   -0.8845   -0.0704 C   0  0  0  0  0
   -4.0453   -5.6215   -0.9570 N   0  0  0  0  0
   -1.1819    1.4029    0.3117 N   0  0  0  0  0
    3.5483   -0.8466   -1.7453 O   0  0  0  0  0
    1.9825   -1.7989   -3.0642 O   0  0  0  0  0
   -3.6008    1.7508    1.1377 O   0  0  0  0  0
   -3.1150    2.0494   -1.3066 O   0  0  0  0  0
   -2.8638    1.3506   -0.0537 S   0  0  0  0  0
  2  4  1  0  0  0
  3  8  1  0  0  0
  5 12  1  0  0  0
  6 13  1  0  0  0
  7 10  1  0  0  0
  8  1  1  0  0  0
  9 11  1  0  0  0
  9 14  1  0  0  0
 12 18  1  0  0  0
 14 19  1  0  0  0
 15 10  1  0  0  0
 16 11  1  0  0  0
 23 13  1  0  0  0
 23 18  1  0  0  0
  2  5  2  0  0  0
  3  6  2  0  0  0
  4  9  2  0  0  0
  7  8  2  0  0  0
 10 13  2  0  0  0
 11 12  2  0  0  0
 14 20  2  0  0  0
 23 21  2  0  0  0
 23 22  2  0  0  0
  1 17  3  0  0  0
M  CHG  1  19  -1
M  END
> <rmsd>
0.384994

$$$$
ZINC78938721


 23 24  0  0  0  0  0  0  0  0999 V2000
   -3.3855   -4.4739   -1.0921 C   0  0  0  0  0
    1.0190    2.9467   -2.2787 C   0  0  0  0  0
   -3.4494   -2.1527   -1.8579 C   0  0  0  0  0
    1.6055    1.7832   -2.7768 C   0  0  0  0  0
    0.0920    2.8707   -1.2392 C   0  0  0  0  0
   -3.3273   -0.7870   -1.6017 C   0  0  0  0  0
   -2.9429   -2.6318    0.4552 C   0  0  0  0  0
    0.3378    0.4676   -1.1958 C   0  0  0  0  0
   -3.2573   -3.0752   -0.8294 C   0  0  0  0  0
    1.2649    0.5437   -2.2353 C   0  0  0  0  0
   -2.8207   -1.2661    0.7114 C   0  0  0  0  0
   -0.2486    1.6311   -0.6978 C   0  0  0  0  0
   -3.0129   -0.3438   -0.3171 C   0  0  0  0  0
    3.1734   -1.0027   -1.9930 C   0  0  0  0  0
   -2.4812   -0.8242    2.0975 C   0  0  0  0  0
    1.8917   -0.7001   -2.7683 C   0  0  0  0  0
   -3.4897   -5.6098   -1.3055 N   0  0  0  0  0
   -1.2037    1.5533    0.3746 N   0  0  0  0  0
    3.0156   -1.2263   -0.7595 O   0  0  0  0  0
    4.2341   -0.9842   -2.6796 O   0  0  0  0  0
   -3.6600    1.6948    1.1498 O   0  0  0  0  0
   -3.1458    2.0779   -1.2768 O   0  0  0  0  0
   -2.8679    1.3767   -0.0309 S   0  0  0  0  0
  2  4  1  0  0  0
  3  9  1  0  0  0
  5 12  1  0  0  0
  6 13  1  0  0  0
  7 11  1  0  0  0
  8 10  1  0  0  0
  9  1  1  0  0  0
 12 18  1  0  0  0
 14 19  1  0  0  0
 15 11  1  0  0  0
 16 10  1  0  0  0
 16 14  1  0  0  0
 23 13  1  0  0  0
 23 18  1  0  0  0
  2  5  2  0  0  0
  3  6  2  0  0  0
  4 10  2  0  0  0
  7  9  2  0  0  0
  8 12  2  0  0  0
 11 13  2  0  0  0
 14 20  2  0  0  0
 23 21  2  0  0  0
 23 22  2  0  0  0
  1 17  3  0  0  0
M  CHG  1  19  -1
M  END
> <rmsd>
0.513562739

$$$$
ZINC89517222


 24 26  0  0  0  0  0  0  0  0999 V2000
   -2.7869   -2.2232   -0.7584 C   0  0  0  0  0
   -3.9669   -2.2151    0.0043 C   0  0  0  0  0
   -2.0533   -1.0493   -0.9486 C   0  0  0  0  0
    0.9886    3.1612   -2.0867 C   0  0  0  0  0
   -4.4302   -1.0327    0.5840 C   0  0  0  0  0
    1.8481    2.8702   -3.1459 C   0  0  0  0  0
    1.9923    1.3903   -0.7854 C   0  0  0  0  0
   -2.5268    0.1169   -0.3753 C   0  0  0  0  0
    1.0606    2.4213   -0.9064 C   0  0  0  0  0
    2.8519    1.0992   -1.8446 C   0  0  0  0  0
   -3.6960    0.1180    0.3722 C   0  0  0  0  0
    2.7798    1.8391   -3.0249 C   0  0  0  0  0
   -3.1380    2.2609    0.1743 C   0  0  0  0  0
   -1.9387    1.4745   -0.3662 C   0  0  0  0  0
    3.9321    0.2924   -6.0702 C   0  0  0  0  0
    0.8744    3.1032    1.5220 C   0  0  0  0  0
    2.9951    1.2037   -5.3065 C   0  0  0  0  0
    0.1292    2.7370    0.2410 C   0  0  0  0  0
    3.7951    0.0446   -1.7037 N   0  0  0  0  0
   -0.7921    1.6152    0.5672 N   0  0  0  0  0
    3.4627   -1.1154   -2.0444 O   0  0  0  0  0
    4.9317    0.3056   -1.2431 O   0  0  0  0  0
   -4.0168    1.3505    0.8831 O   0  0  0  0  0
    3.6091    1.5738   -4.0741 O   0  0  0  0  0
  1  3  1  0  0  0
  2  5  1  0  0  0
  4  9  1  0  0  0
  6 12  1  0  0  0
  7 10  1  0  0  0
  8 11  1  0  0  0
 10 19  1  0  0  0
 11 23  1  0  0  0
 12 24  1  0  0  0
 13 14  1  0  0  0
 13 23  1  0  0  0
 14  8  1  0  0  0
 14 20  1  0  0  0
 15 17  1  0  0  0
 16 18  1  0  0  0
 17 24  1  0  0  0
 18  9  1  0  0  0
 18 20  1  0  0  0
 19 21  1  0  0  0
  1  2  2  0  0  0
  3  8  2  0  0  0
  4  6  2  0  0  0
  5 11  2  0  0  0
  7  9  2  0  0  0
 10 12  2  0  0  0
 19 22  2  0  0  0
M  CHG  3  19   1  20   1  21  -1
M  END
> <rmsd>
0.499801904

$$$$
ZINC89517222


 24 26  0  0  0  0  0  0  0  0999 V2000
   -3.1758   -2.1690   -0.9156 C   0  0  0  0  0
   -4.2247   -2.1425    0.0189 C   0  0  0  0  0
   -2.4109   -1.0257   -1.1608 C   0  0  0  0  0
    0.6689    3.0794   -2.5537 C   0  0  0  0  0
   -4.5243   -0.9718    0.7178 C   0  0  0  0  0
    1.3402    2.8038   -3.7448 C   0  0  0  0  0
    1.7505    1.1897   -1.5067 C   0  0  0  0  0
   -2.7225    0.1298   -0.4674 C   0  0  0  0  0
    0.8741    2.2724   -1.4346 C   0  0  0  0  0
    2.4218    0.9140   -2.6979 C   0  0  0  0  0
   -3.7634    0.1495    0.4501 C   0  0  0  0  0
    2.2166    1.7210   -3.8171 C   0  0  0  0  0
   -3.1156    2.2685    0.2697 C   0  0  0  0  0
   -2.0603    1.4527   -0.4850 C   0  0  0  0  0
    3.2127    2.9164   -6.8687 C   0  0  0  0  0
    1.0970    2.8272    1.0230 C   0  0  0  0  0
    3.7056    2.5031   -5.4984 C   0  0  0  0  0
    0.1467    2.5715   -0.1441 C   0  0  0  0  0
    3.3113   -0.1939   -2.7534 N   0  0  0  0  0
   -0.7797    1.4822    0.2667 N   0  0  0  0  0
    3.4695   -0.8962   -1.7267 O   0  0  0  0  0
    3.9112   -0.4363   -3.8273 O   0  0  0  0  0
   -3.9299    1.3667    1.0616 O   0  0  0  0  0
    2.8609    1.4720   -4.9925 O   0  0  0  0  0
  1  3  1  0  0  0
  2  5  1  0  0  0
  4  9  1  0  0  0
  6 12  1  0  0  0
  7 10  1  0  0  0
  8 11  1  0  0  0
 10 19  1  0  0  0
 11 23  1  0  0  0
 12 24  1  0  0  0
 13 14  1  0  0  0
 13 23  1  0  0  0
 14  8  1  0  0  0
 14 20  1  0  0  0
 15 17  1  0  0  0
 16 18  1  0  0  0
 17 24  1  0  0  0
 18  9  1  0  0  0
 18 20  1  0  0  0
 19 21  1  0  0  0
  1  2  2  0  0  0
  3  8  2  0  0  0
  4  6  2  0  0  0
  5 11  2  0  0  0
  7  9  2  0  0  0
 10 12  2  0  0  0
 19 22  2  0  0  0
M  CHG  3  19   1  20   1  21  -1
M  END
> <rmsd>
0.435152769

$$$$
ZINC07053262


 21 22  0  0  0  0  0  0  0  0999 V2000
    1.6927    2.6012   -1.3817 C   0  0  0  0  0
    0.5412    2.6344   -0.5952 C   0  0  0  0  0
    2.3113    1.3826   -1.6615 C   0  0  0  0  0
   -2.8074   -0.9703   -1.5058 C   0  0  0  0  0
   -2.9419   -2.3507   -1.6547 C   0  0  0  0  0
    0.6270    0.2306   -0.3681 C   0  0  0  0  0
   -3.2157   -2.5817    0.7345 C   0  0  0  0  0
    0.0083    1.4491   -0.0883 C   0  0  0  0  0
    1.7785    0.1974   -1.1547 C   0  0  0  0  0
   -3.0812   -1.2014    0.8835 C   0  0  0  0  0
   -2.8771   -0.3956   -0.2368 C   0  0  0  0  0
   -3.1461   -3.1564   -0.5345 C   0  0  0  0  0
   -1.1700    1.4835    0.7169 N   0  0  0  0  0
    2.4080   -1.0427   -1.4407 N   0  0  0  0  0
    3.4425   -1.0499   -2.1511 O   0  0  0  0  0
    1.9133   -2.0977   -0.9750 O   0  0  0  0  0
   -3.7363    1.7845    0.8742 O   0  0  0  0  0
   -2.6453    1.9367   -1.3809 O   0  0  0  0  0
   -3.1497   -0.6604    2.1078 F   0  0  0  0  0
   -2.7058    1.3564   -0.0532 S   0  0  0  0  0
   -3.3116   -4.8596   -0.7181 Cl  0  0  0  0  0
  1  2  1  0  0  0
  3  9  1  0  0  0
  4 11  1  0  0  0
  5 12  1  0  0  0
  6  8  1  0  0  0
  7 10  1  0  0  0
  8 13  1  0  0  0
  9 14  1  0  0  0
 10 19  1  0  0  0
 12 21  1  0  0  0
 14 15  1  0  0  0
 20 11  1  0  0  0
 20 13  1  0  0  0
  1  3  2  0  0  0
  2  8  2  0  0  0
  4  5  2  0  0  0
  6  9  2  0  0  0
  7 12  2  0  0  0
 10 11  2  0  0  0
 14 16  2  0  0  0
 20 17  2  0  0  0
 20 18  2  0  0  0
M  CHG  2  14   1  15  -1
M  END
> <rmsd>
0.551576734

$$$$
ZINC07053258


 22 23  0  0  0  0  0  0  0  0999 V2000
    1.6931    2.6015   -1.3819 C   0  0  0  0  0
    0.5416    2.6348   -0.5954 C   0  0  0  0  0
    2.3117    1.3830   -1.6617 C   0  0  0  0  0
   -2.9408   -2.3507   -1.6547 C   0  0  0  0  0
   -2.8073   -0.9702   -1.5063 C   0  0  0  0  0
    0.6272    0.2310   -0.3686 C   0  0  0  0  0
    0.0086    1.4495   -0.0887 C   0  0  0  0  0
    1.7787    0.1978   -1.1551 C   0  0  0  0  0
   -3.1442   -3.1562   -0.5341 C   0  0  0  0  0
   -3.2137   -2.5810    0.7348 C   0  0  0  0  0
   -3.0801   -1.2005    0.8831 C   0  0  0  0  0
   -2.8769   -0.3951   -0.2375 C   0  0  0  0  0
   -1.1697    1.4838    0.7165 N   0  0  0  0  0
    2.4082   -1.0423   -1.4412 N   0  0  0  0  0
    3.4427   -1.0496   -2.1516 O   0  0  0  0  0
    1.9134   -2.0974   -0.9757 O   0  0  0  0  0
   -3.7360    1.7850    0.8737 O   0  0  0  0  0
   -2.6450    1.9374   -1.3814 O   0  0  0  0  0
   -3.2730   -4.4817   -0.6766 F   0  0  0  0  0
   -3.4096   -3.3548    1.8105 F   0  0  0  0  0
   -3.1485   -0.6592    2.1074 F   0  0  0  0  0
   -2.7055    1.3569   -0.0537 S   0  0  0  0  0
  1  2  1  0  0  0
  3  8  1  0  0  0
  4  9  1  0  0  0
  5 12  1  0  0  0
  6  7  1  0  0  0
  7 13  1  0  0  0
  8 14  1  0  0  0
  9 19  1  0  0  0
 10 11  1  0  0  0
 10 20  1  0  0  0
 11 21  1  0  0  0
 14 15  1  0  0  0
 22 12  1  0  0  0
 22 13  1  0  0  0
  1  3  2  0  0  0
  2  7  2  0  0  0
  4  5  2  0  0  0
  6  8  2  0  0  0
  9 10  2  0  0  0
 11 12  2  0  0  0
 14 16  2  0  0  0
 22 17  2  0  0  0
 22 18  2  0  0  0
M  CHG  2  14   1  15  -1
M  END
> <rmsd>
0.55194205

$$$$
ZINC37404879


 21 22  0  0  0  0  0  0  0  0999 V2000
    0.1956    2.3431   -1.3294 C   0  0  0  0  0
   -3.3712   -3.1401   -0.5682 C   0  0  0  0  0
   -3.5173   -1.1500    0.7937 C   0  0  0  0  0
   -2.6693   -1.0089   -1.4642 C   0  0  0  0  0
    1.3308    2.0174   -2.1265 C   0  0  0  0  0
   -3.7025   -2.5238    0.6384 C   0  0  0  0  0
   -2.8546   -2.3827   -1.6196 C   0  0  0  0  0
   -3.0007   -0.3926   -0.2576 C   0  0  0  0  0
    1.8837    0.8073   -1.7694 C   0  0  0  0  0
   -0.0760    1.3694   -0.3935 C   0  0  0  0  0
    3.1130    0.1761   -2.4348 C   0  0  0  0  0
    1.8433    2.8910   -3.2097 C   0  0  0  0  0
   -1.1627    1.4312    0.5466 N   0  0  0  0  0
    3.4833   -0.9381   -1.9796 O   0  0  0  0  0
    3.6373    0.8312   -3.3738 O   0  0  0  0  0
   -3.6813    1.7832    0.9787 O   0  0  0  0  0
   -2.8345    1.9571   -1.3776 O   0  0  0  0  0
   -4.1988   -3.2520    1.6471 F   0  0  0  0  0
   -2.5369   -2.9746   -2.7785 F   0  0  0  0  0
    1.0352    0.0693   -0.4779 S   0  0  0  0  0
   -2.7703    1.3270   -0.0645 S   0  0  0  0  0
  1  5  1  0  0  0
  2  6  1  0  0  0
  3  8  1  0  0  0
  4  7  1  0  0  0
  6 18  1  0  0  0
  7 19  1  0  0  0
  9 11  1  0  0  0
  9 20  1  0  0  0
 10 13  1  0  0  0
 10 20  1  0  0  0
 11 14  1  0  0  0
 12  5  1  0  0  0
 21  8  1  0  0  0
 21 13  1  0  0  0
  1 10  2  0  0  0
  2  7  2  0  0  0
  3  6  2  0  0  0
  4  8  2  0  0  0
  5  9  2  0  0  0
 11 15  2  0  0  0
 21 16  2  0  0  0
 21 17  2  0  0  0
M  CHG  1  14  -1
M  END
> <rmsd>
0.437252462

$$$$
ZINC07053272


 23 25  0  0  0  0  0  0  0  0999 V2000
    1.6650    2.5882   -1.4425 C   0  0  0  0  0
   -3.5952   -2.5283    0.6104 C   0  0  0  0  0
    0.5212    2.6295   -0.6455 C   0  0  0  0  0
    2.2908    1.3687   -1.7017 C   0  0  0  0  0
   -3.4713   -1.1473    0.7584 C   0  0  0  0  0
   -2.3984   -1.0158   -1.3984 C   0  0  0  0  0
    0.6289    0.2321   -0.3663 C   0  0  0  0  0
   -3.1147   -3.1698   -0.5413 C   0  0  0  0  0
   -2.5264   -2.4031   -1.5644 C   0  0  0  0  0
    0.0031    1.4515   -0.1074 C   0  0  0  0  0
    1.7729    0.1908   -1.1636 C   0  0  0  0  0
   -2.8710   -0.3917   -0.2444 C   0  0  0  0  0
   -3.2976   -4.6606   -0.6795 C   0  0  0  0  0
   -1.9731   -3.0455   -2.8120 C   0  0  0  0  0
   -2.4178   -5.2784   -1.7646 C   0  0  0  0  0
   -2.5002   -4.4598   -3.0467 C   0  0  0  0  0
   -1.1761    1.4946    0.7148 N   0  0  0  0  0
    2.4097   -1.0502   -1.4286 N   0  0  0  0  0
    3.4371   -1.0649   -2.1491 O   0  0  0  0  0
    1.9282   -2.0986   -0.9348 O   0  0  0  0  0
   -3.7345    1.7800    0.8799 O   0  0  0  0  0
   -2.6540    1.9466   -1.3794 O   0  0  0  0  0
   -2.7086    1.3363   -0.0566 S   0  0  0  0  0
  1  3  1  0  0  0
  2  8  1  0  0  0
  4 11  1  0  0  0
  5 12  1  0  0  0
  6  9  1  0  0  0
  7 10  1  0  0  0
 10 17  1  0  0  0
 11 18  1  0  0  0
 13  8  1  0  0  0
 13 15  1  0  0  0
 14  9  1  0  0  0
 14 16  1  0  0  0
 15 16  1  0  0  0
 18 19  1  0  0  0
 23 12  1  0  0  0
 23 17  1  0  0  0
  1  4  2  0  0  0
  2  5  2  0  0  0
  3 10  2  0  0  0
  6 12  2  0  0  0
  7 11  2  0  0  0
  8  9  2  0  0  0
 18 20  2  0  0  0
 23 21  2  0  0  0
 23 22  2  0  0  0
M  CHG  2  18   1  19  -1
M  END
> <rmsd>
0.562405944

$$$$
ZINC00258703


 23 24  0  0  0  0  0  0  0  0999 V2000
    1.0387    2.6450   -2.3430 C   0  0  0  0  0
    1.9482    1.5930   -2.4512 C   0  0  0  0  0
    0.0313    2.5997   -1.3793 C   0  0  0  0  0
   -3.4964   -2.5689    0.5331 C   0  0  0  0  0
   -2.7695   -2.3201   -1.7574 C   0  0  0  0  0
    1.8501    0.4955   -1.5958 C   0  0  0  0  0
   -3.2034   -3.1316   -0.7091 C   0  0  0  0  0
   -3.3556   -1.1947    0.7270 C   0  0  0  0  0
   -2.6287   -0.9460   -1.5635 C   0  0  0  0  0
    0.8426    0.4502   -0.6322 C   0  0  0  0  0
   -0.0669    1.5023   -0.5239 C   0  0  0  0  0
   -2.9217   -0.3833   -0.3213 C   0  0  0  0  0
    2.8224   -0.6046   -1.7318 C   0  0  0  0  0
   -3.3530   -4.6011   -0.9162 C   0  0  0  0  0
   -3.6778   -0.6283    2.0719 C   0  0  0  0  0
   -2.1611   -0.1083   -2.7092 C   0  0  0  0  0
    0.7378   -0.7278    0.2856 C   0  0  0  0  0
   -1.1077    1.4765    0.4563 N   0  0  0  0  0
    3.9126   -0.5525   -1.0507 O   0  0  0  0  0
    2.5460   -1.5775   -2.5271 O   0  0  0  0  0
   -3.6196    1.7219    1.0229 O   0  0  0  0  0
   -2.8939    2.0079   -1.3627 O   0  0  0  0  0
   -2.7415    1.3599   -0.0741 S   0  0  0  0  0
  1  2  1  0  0  0
  3 11  1  0  0  0
  4  7  1  0  0  0
  5  9  1  0  0  0
  6 10  1  0  0  0
  6 13  1  0  0  0
  8 12  1  0  0  0
 11 18  1  0  0  0
 13 19  1  0  0  0
 14  7  1  0  0  0
 15  8  1  0  0  0
 16  9  1  0  0  0
 17 10  1  0  0  0
 23 12  1  0  0  0
 23 18  1  0  0  0
  1  3  2  0  0  0
  2  6  2  0  0  0
  4  8  2  0  0  0
  5  7  2  0  0  0
  9 12  2  0  0  0
 10 11  2  0  0  0
 13 20  2  0  0  0
 23 21  2  0  0  0
 23 22  2  0  0  0
M  CHG  1  19  -1
M  END
> <rmsd>
0.560344338

$$$$
ZINC00258703


 23 24  0  0  0  0  0  0  0  0999 V2000
    0.7104    2.5020   -2.6948 C   0  0  0  0  0
    1.5514    1.4098   -2.9078 C   0  0  0  0  0
   -0.1901    2.4915   -1.6296 C   0  0  0  0  0
   -3.7399   -2.5300    0.6065 C   0  0  0  0  0
   -3.2491   -2.2856   -1.7464 C   0  0  0  0  0
    1.4919    0.3070   -2.0557 C   0  0  0  0  0
   -3.6079   -3.0896   -0.6644 C   0  0  0  0  0
   -3.5132   -1.1667    0.7953 C   0  0  0  0  0
   -3.0224   -0.9223   -1.5577 C   0  0  0  0  0
    0.5914    0.2965   -0.9906 C   0  0  0  0  0
   -0.2497    1.3888   -0.7774 C   0  0  0  0  0
   -3.1545   -0.3629   -0.2867 C   0  0  0  0  0
    2.3901   -0.8357   -2.3035 C   0  0  0  0  0
   -3.8493   -4.5475   -0.8662 C   0  0  0  0  0
   -3.6632   -0.6034    2.1714 C   0  0  0  0  0
   -2.6392   -0.0926   -2.7399 C   0  0  0  0  0
    0.5279   -0.8872   -0.0764 C   0  0  0  0  0
   -1.1807    1.3991    0.3079 N   0  0  0  0  0
    3.5476   -0.8440   -1.7421 O   0  0  0  0  0
    1.9843   -1.7841   -3.0726 O   0  0  0  0  0
   -3.6035    1.7550    1.1411 O   0  0  0  0  0
   -3.1221    2.0379   -1.3059 O   0  0  0  0  0
   -2.8653    1.3666   -0.0461 S   0  0  0  0  0
  1  2  1  0  0  0
  3 11  1  0  0  0
  4  7  1  0  0  0
  5  9  1  0  0  0
  6 10  1  0  0  0
  6 13  1  0  0  0
  8 12  1  0  0  0
 11 18  1  0  0  0
 13 19  1  0  0  0
 14  7  1  0  0  0
 15  8  1  0  0  0
 16  9  1  0  0  0
 17 10  1  0  0  0
 23 12  1  0  0  0
 23 18  1  0  0  0
  1  3  2  0  0  0
  2  6  2  0  0  0
  4  8  2  0  0  0
  5  7  2  0  0  0
  9 12  2  0  0  0
 10 11  2  0  0  0
 13 20  2  0  0  0
 23 21  2  0  0  0
 23 22  2  0  0  0
M  CHG  1  19  -1
M  END
> <rmsd>
0.387530595

$$$$
ZINC05516093


 23 24  0  0  0  0  0  0  0  0999 V2000
    0.8387    2.4642   -2.6177 C   0  0  0  0  0
    1.8167    1.4701   -2.6480 C   0  0  0  0  0
   -3.5504   -2.5650    0.5406 C   0  0  0  0  0
   -2.9106   -2.3096   -1.7751 C   0  0  0  0  0
   -0.1297    2.4594   -1.6137 C   0  0  0  0  0
   -3.3841   -1.1942    0.7378 C   0  0  0  0  0
   -2.7443   -0.9387   -1.5779 C   0  0  0  0  0
    0.8577    0.4662   -0.6707 C   0  0  0  0  0
    1.8263    0.4712   -1.6747 C   0  0  0  0  0
   -3.3137   -3.1226   -0.7159 C   0  0  0  0  0
   -0.1202    1.4604   -0.6403 C   0  0  0  0  0
   -2.9810   -0.3810   -0.3214 C   0  0  0  0  0
    2.8584   -0.5778   -1.7076 C   0  0  0  0  0
   -4.9534   -5.0326   -0.6206 C   0  0  0  0  0
   -2.5444   -5.4113    0.0033 C   0  0  0  0  0
   -3.1939   -5.0987   -2.3761 C   0  0  0  0  0
   -3.4948   -4.6341   -0.9331 C   0  0  0  0  0
   -1.1191    1.4551    0.3943 N   0  0  0  0  0
    2.8455   -1.4886   -0.7972 O   0  0  0  0  0
    3.7405   -0.5498   -2.6454 O   0  0  0  0  0
   -3.5959    1.7237    1.0634 O   0  0  0  0  0
   -2.9685    2.0162   -1.3491 O   0  0  0  0  0
   -2.7724    1.3348   -0.0753 S   0  0  0  0  0
  1  2  1  0  0  0
  3 10  1  0  0  0
  4  7  1  0  0  0
  5 11  1  0  0  0
  6 12  1  0  0  0
  8  9  1  0  0  0
  9 13  1  0  0  0
 11 18  1  0  0  0
 13 19  1  0  0  0
 14 17  1  0  0  0
 15 17  1  0  0  0
 16 17  1  0  0  0
 17 10  1  0  0  0
 23 12  1  0  0  0
 23 18  1  0  0  0
  1  5  2  0  0  0
  2  9  2  0  0  0
  3  6  2  0  0  0
  4 10  2  0  0  0
  7 12  2  0  0  0
  8 11  2  0  0  0
 13 20  2  0  0  0
 23 21  2  0  0  0
 23 22  2  0  0  0
M  CHG  1  19  -1
M  END
> <rmsd>
0.52110225

$$$$
ZINC65844486


 23 24  0  0  0  0  0  0  0  0999 V2000
    1.0384    2.6447   -2.3437 C   0  0  0  0  0
    1.9480    1.5928   -2.4516 C   0  0  0  0  0
   -3.4961   -2.5696    0.5328 C   0  0  0  0  0
   -2.7703   -2.3194   -1.7580 C   0  0  0  0  0
    0.0311    2.5996   -1.3798 C   0  0  0  0  0
   -3.3548   -1.1957    0.7277 C   0  0  0  0  0
   -2.6289   -0.9455   -1.5632 C   0  0  0  0  0
    1.8502    0.4957   -1.5958 C   0  0  0  0  0
   -3.2038   -3.1316   -0.7101 C   0  0  0  0  0
    0.8429    0.4505   -0.6320 C   0  0  0  0  0
   -0.0668    1.5025   -0.5240 C   0  0  0  0  0
   -2.9212   -0.3836   -0.3203 C   0  0  0  0  0
    2.8227   -0.6043   -1.7315 C   0  0  0  0  0
    0.7384   -0.7272    0.2862 C   0  0  0  0  0
   -1.6135   -5.1402    0.8447 C   0  0  0  0  0
   -3.3528   -4.6006   -0.9181 C   0  0  0  0  0
   -2.0606   -5.3646   -0.5911 C   0  0  0  0  0
   -1.1075    1.4768    0.4563 N   0  0  0  0  0
    3.9130   -0.5518   -1.0505 O   0  0  0  0  0
    2.5465   -1.5776   -2.5264 O   0  0  0  0  0
   -3.6193    1.7220    1.0232 O   0  0  0  0  0
   -2.8940    2.0072   -1.3626 O   0  0  0  0  0
   -2.7414    1.3598   -0.0738 S   0  0  0  0  0
  1  2  1  0  0  0
  3  9  1  0  0  0
  4  7  1  0  0  0
  5 11  1  0  0  0
  6 12  1  0  0  0
  8 10  1  0  0  0
  8 13  1  0  0  0
 11 18  1  0  0  0
 13 19  1  0  0  0
 14 10  1  0  0  0
 15 17  1  0  0  0
 16  9  1  0  0  0
 16 17  1  0  0  0
 23 12  1  0  0  0
 23 18  1  0  0  0
  1  5  2  0  0  0
  2  8  2  0  0  0
  3  6  2  0  0  0
  4  9  2  0  0  0
  7 12  2  0  0  0
 10 11  2  0  0  0
 13 20  2  0  0  0
 23 21  2  0  0  0
 23 22  2  0  0  0
M  CHG  1  19  -1
M  END
> <rmsd>
0.560235322

$$$$
ZINC65844486


 23 24  0  0  0  0  0  0  0  0999 V2000
    0.7101    2.5015   -2.6953 C   0  0  0  0  0
    1.5513    1.4094   -2.9081 C   0  0  0  0  0
   -3.7399   -2.5307    0.6062 C   0  0  0  0  0
   -3.2499   -2.2849   -1.7469 C   0  0  0  0  0
   -0.1902    2.4912   -1.6300 C   0  0  0  0  0
   -3.5126   -1.1677    0.7959 C   0  0  0  0  0
   -3.0226   -0.9219   -1.5572 C   0  0  0  0  0
    1.4921    0.3069   -2.0556 C   0  0  0  0  0
   -3.6085   -3.0895   -0.6653 C   0  0  0  0  0
    0.5917    0.2966   -0.9903 C   0  0  0  0  0
   -0.2496    1.3888   -0.7775 C   0  0  0  0  0
   -3.1539   -0.3633   -0.2858 C   0  0  0  0  0
    2.3905   -0.8358   -2.3030 C   0  0  0  0  0
    0.5285   -0.8868   -0.0757 C   0  0  0  0  0
   -1.9609   -5.1911    0.6949 C   0  0  0  0  0
   -3.8494   -4.5470   -0.8680 C   0  0  0  0  0
   -2.5682   -5.3753   -0.6868 C   0  0  0  0  0
   -1.1804    1.3993    0.3080 N   0  0  0  0  0
    3.5481   -0.8436   -1.7417 O   0  0  0  0  0
    1.9848   -1.7845   -3.0717 O   0  0  0  0  0
   -3.6032    1.7551    1.1413 O   0  0  0  0  0
   -3.1221    2.0371   -1.3058 O   0  0  0  0  0
   -2.8650    1.3663   -0.0459 S   0  0  0  0  0
  1  2  1  0  0  0
  3  9  1  0  0  0
  4  7  1  0  0  0
  5 11  1  0  0  0
  6 12  1  0  0  0
  8 10  1  0  0  0
  8 13  1  0  0  0
 11 18  1  0  0  0
 13 19  1  0  0  0
 14 10  1  0  0  0
 15 17  1  0  0  0
 16  9  1  0  0  0
 16 17  1  0  0  0
 23 12  1  0  0  0
 23 18  1  0  0  0
  1  5  2  0  0  0
  2  8  2  0  0  0
  3  6  2  0  0  0
  4  9  2  0  0  0
  7 12  2  0  0  0
 10 11  2  0  0  0
 13 20  2  0  0  0
 23 21  2  0  0  0
 23 22  2  0  0  0
M  CHG  1  19  -1
M  END
> <rmsd>
0.387333035

$$$$
ZINC68182771


 23 24  0  0  0  0  0  0  0  0999 V2000
    0.7111    2.5021   -2.6943 C   0  0  0  0  0
    1.5522    1.4100   -2.9072 C   0  0  0  0  0
   -3.2507   -2.2856   -1.7460 C   0  0  0  0  0
   -3.7406   -2.5298    0.6071 C   0  0  0  0  0
   -0.1894    2.4915   -1.6290 C   0  0  0  0  0
   -3.0227   -0.9226   -1.5571 C   0  0  0  0  0
   -3.5125   -1.1667    0.7961 C   0  0  0  0  0
    1.4928    0.3073   -2.0551 C   0  0  0  0  0
   -3.6098   -3.0893   -0.6639 C   0  0  0  0  0
    0.5923    0.2967   -0.9899 C   0  0  0  0  0
   -0.2489    1.3888   -0.7769 C   0  0  0  0  0
   -3.1535   -0.3631   -0.2861 C   0  0  0  0  0
    2.3911   -0.8354   -2.3028 C   0  0  0  0  0
    0.5289   -0.8870   -0.0757 C   0  0  0  0  0
   -5.3034   -4.9513   -0.5290 C   0  0  0  0  0
   -2.8696   -5.4254   -0.0739 C   0  0  0  0  0
   -3.8558   -4.5461   -0.8659 C   0  0  0  0  0
   -1.1799    1.3991    0.3085 N   0  0  0  0  0
    3.5487   -0.8435   -1.7414 O   0  0  0  0  0
    1.9855   -1.7838   -3.0718 O   0  0  0  0  0
   -3.6028    1.7548    1.1416 O   0  0  0  0  0
   -3.1214    2.0376   -1.3054 O   0  0  0  0  0
   -2.8645    1.3664   -0.0456 S   0  0  0  0  0
  1  2  1  0  0  0
  3  9  1  0  0  0
  4  7  1  0  0  0
  5 11  1  0  0  0
  6 12  1  0  0  0
  8 10  1  0  0  0
  8 13  1  0  0  0
 11 18  1  0  0  0
 13 19  1  0  0  0
 14 10  1  0  0  0
 15 17  1  0  0  0
 16 17  1  0  0  0
 17  9  1  0  0  0
 23 12  1  0  0  0
 23 18  1  0  0  0
  1  5  2  0  0  0
  2  8  2  0  0  0
  3  6  2  0  0  0
  4  9  2  0  0  0
  7 12  2  0  0  0
 10 11  2  0  0  0
 13 20  2  0  0  0
 23 21  2  0  0  0
 23 22  2  0  0  0
M  CHG  1  19  -1
M  END
> <rmsd>
0.387273341

$$$$
ZINC68182771


 23 24  0  0  0  0  0  0  0  0999 V2000
    1.0393    2.6452   -2.3425 C   0  0  0  0  0
    1.9488    1.5933   -2.4506 C   0  0  0  0  0
   -2.7711   -2.3201   -1.7571 C   0  0  0  0  0
   -3.4971   -2.5687    0.5337 C   0  0  0  0  0
    0.0318    2.5999   -1.3788 C   0  0  0  0  0
   -2.6290   -0.9462   -1.5630 C   0  0  0  0  0
   -3.3549   -1.1947    0.7279 C   0  0  0  0  0
    1.8509    0.4959   -1.5951 C   0  0  0  0  0
   -3.2053   -3.1314   -0.7087 C   0  0  0  0  0
    0.8434    0.4505   -0.6315 C   0  0  0  0  0
   -0.0662    1.5025   -0.5233 C   0  0  0  0  0
   -2.9208   -0.3835   -0.3206 C   0  0  0  0  0
    2.8233   -0.6041   -1.7311 C   0  0  0  0  0
    0.7387   -0.7275    0.2864 C   0  0  0  0  0
   -4.8140   -5.0718   -0.7298 C   0  0  0  0  0
   -2.4231   -5.4244   -0.0128 C   0  0  0  0  0
   -3.3595   -4.6000   -0.9165 C   0  0  0  0  0
   -1.1070    1.4766    0.4569 N   0  0  0  0  0
    3.9135   -0.5518   -1.0499 O   0  0  0  0  0
    2.5471   -1.5772   -2.5263 O   0  0  0  0  0
   -3.6190    1.7217    1.0235 O   0  0  0  0  0
   -2.8933    2.0077   -1.3621 O   0  0  0  0  0
   -2.7409    1.3598   -0.0735 S   0  0  0  0  0
  1  2  1  0  0  0
  3  9  1  0  0  0
  4  7  1  0  0  0
  5 11  1  0  0  0
  6 12  1  0  0  0
  8 10  1  0  0  0
  8 13  1  0  0  0
 11 18  1  0  0  0
 13 19  1  0  0  0
 14 10  1  0  0  0
 15 17  1  0  0  0
 16 17  1  0  0  0
 17  9  1  0  0  0
 23 12  1  0  0  0
 23 18  1  0  0  0
  1  5  2  0  0  0
  2  8  2  0  0  0
  3  6  2  0  0  0
  4  9  2  0  0  0
  7 12  2  0  0  0
 10 11  2  0  0  0
 13 20  2  0  0  0
 23 21  2  0  0  0
 23 22  2  0  0  0
M  CHG  1  19  -1
M  END
> <rmsd>
0.559841871

$$$$
ZINC72904130


 23 24  0  0  0  0  0  0  0  0999 V2000
   -2.3443   -2.7718    0.0674 C   0  0  0  0  0
   -2.9994   -0.9935   -1.4310 C   0  0  0  0  0
   -3.6033   -2.7310    0.6663 C   0  0  0  0  0
   -4.2585   -0.9526   -0.8321 C   0  0  0  0  0
   -2.0422   -1.9030   -0.9813 C   0  0  0  0  0
   -4.5604   -1.8215    0.2166 C   0  0  0  0  0
   -0.7399   -1.9451   -1.6008 C   0  0  0  0  0
    1.3477   -1.5355   -2.0291 C   0  0  0  0  0
   -0.3381    1.0502   -0.4122 C   0  0  0  0  0
   -3.0695    2.6408    0.4192 C   0  0  0  0  0
   -5.9064   -1.7776    0.8573 C   0  0  0  0  0
   -5.9108    4.1142    0.4963 C   0  0  0  0  0
    0.3380   -0.2617   -0.0762 C   0  0  0  0  0
   -1.6058    2.8927    0.6766 C   0  0  0  0  0
   -5.0448    3.7204   -0.6517 C   0  0  0  0  0
   -0.3955   -2.6855   -2.6301 N   0  0  0  0  0
    0.9327   -2.4249   -2.9027 N   0  0  0  0  0
    0.3271   -1.2051   -1.1900 N   0  0  0  0  0
   -0.8844    1.6122    0.7159 N   0  0  0  0  0
   -3.6513    3.6958   -0.2691 N   0  0  0  0  0
   -0.3783    1.5201   -1.5461 O   0  0  0  0  0
   -3.6535    1.6222    0.7793 O   0  0  0  0  0
    2.9120   -0.8841   -1.9427 S   0  0  0  0  0
  1  5  1  0  0  0
  2  4  1  0  0  0
  3  6  1  0  0  0
  5  7  1  0  0  0
  7 18  1  0  0  0
  8 17  1  0  0  0
  8 18  1  0  0  0
  9 19  1  0  0  0
 10 20  1  0  0  0
 11  6  1  0  0  0
 12 15  1  0  0  0
 13  9  1  0  0  0
 13 18  1  0  0  0
 14 10  1  0  0  0
 14 19  1  0  0  0
 15 20  1  0  0  0
 16 17  1  0  0  0
  1  3  2  0  0  0
  2  5  2  0  0  0
  4  6  2  0  0  0
  7 16  2  0  0  0
  8 23  2  0  0  0
  9 21  2  0  0  0
 10 22  2  0  0  0
M  CHG  1  23  -1
M  END
> <rmsd>
0.497112781

$$$$
ZINC13166496


 23 24  0  0  0  0  0  0  0  0999 V2000
    2.1891   -0.5979   -0.0297 C   0  0  0  0  0
    1.6031    0.6064   -2.0404 C   0  0  0  0  0
    1.0589   -0.0851    0.6069 C   0  0  0  0  0
    0.4729    1.1192   -1.4039 C   0  0  0  0  0
   -3.3757   -0.6806    1.3747 C   0  0  0  0  0
   -3.6353    0.0279   -0.9204 C   0  0  0  0  0
   -2.9998   -1.9515    0.9400 C   0  0  0  0  0
   -3.2593   -1.2430   -1.3552 C   0  0  0  0  0
    2.4613   -0.2521   -1.3533 C   0  0  0  0  0
    0.2008    0.7735   -0.0803 C   0  0  0  0  0
   -3.6935    0.3092    0.4446 C   0  0  0  0  0
   -2.9416   -2.2327   -0.4250 C   0  0  0  0  0
    3.6535   -0.7943   -2.0250 C   0  0  0  0  0
   -1.9026    2.1545    0.0372 C   0  0  0  0  0
   -3.5861    3.8999    0.7925 C   0  0  0  0  0
   -2.5173    2.3620    2.4833 C   0  0  0  0  0
   -3.0110    2.5067    1.0451 C   0  0  0  0  0
   -0.9458    1.2950    0.5662 N   0  0  0  0  0
    3.8819   -0.4597   -3.2476 O   0  0  0  0  0
    4.4288   -1.5856   -1.3683 O   0  0  0  0  0
   -1.9199    2.6174   -1.1017 O   0  0  0  0  0
   -4.0611    1.5558    0.8710 O   0  0  0  0  0
   -2.4768   -3.8003   -0.9618 Cl  0  0  0  0  0
  1  9  1  0  0  0
  2  4  1  0  0  0
  3 10  1  0  0  0
  5 11  1  0  0  0
  6  8  1  0  0  0
  7 12  1  0  0  0
  9 13  1  0  0  0
 10 18  1  0  0  0
 11 22  1  0  0  0
 12 23  1  0  0  0
 13 19  1  0  0  0
 14 18  1  0  0  0
 15 17  1  0  0  0
 16 17  1  0  0  0
 17 14  1  0  0  0
 17 22  1  0  0  0
  1  3  2  0  0  0
  2  9  2  0  0  0
  4 10  2  0  0  0
  5  7  2  0  0  0
  6 11  2  0  0  0
  8 12  2  0  0  0
 13 20  2  0  0  0
 14 21  2  0  0  0
M  CHG  1  19  -1
M  END
> <rmsd>
0.553498566

$$$$
ZINC13166496


 23 24  0  0  0  0  0  0  0  0999 V2000
    2.1443   -0.7675    0.6051 C   0  0  0  0  0
    1.7901    0.2854   -1.5403 C   0  0  0  0  0
    0.9767   -0.1765    1.0880 C   0  0  0  0  0
    0.6225    0.8764   -1.0576 C   0  0  0  0  0
   -3.5277   -0.5956    1.4686 C   0  0  0  0  0
   -3.5466   -0.0679   -0.8890 C   0  0  0  0  0
   -3.1546   -1.9065    1.1723 C   0  0  0  0  0
   -3.1734   -1.3788   -1.1854 C   0  0  0  0  0
    2.5510   -0.5364   -0.7090 C   0  0  0  0  0
    0.2158    0.6454    0.2565 C   0  0  0  0  0
   -3.7238    0.3238    0.4380 C   0  0  0  0  0
   -2.9775   -2.2981   -0.1548 C   0  0  0  0  0
    3.7827   -1.1610   -1.2184 C   0  0  0  0  0
   -1.8427    2.0843    0.0629 C   0  0  0  0  0
   -3.5314    3.9269    0.5143 C   0  0  0  0  0
   -2.6777    2.5037    2.4147 C   0  0  0  0  0
   -3.0288    2.5445    0.9288 C   0  0  0  0  0
   -0.9688    1.2462    0.7469 N   0  0  0  0  0
    4.1360   -0.9319   -2.4356 O   0  0  0  0  0
    4.4663   -1.9163   -0.4304 O   0  0  0  0  0
   -1.7375    2.4542   -1.1049 O   0  0  0  0  0
   -4.0886    1.6096    0.7287 O   0  0  0  0  0
   -2.5161   -3.9151   -0.5206 Cl  0  0  0  0  0
  1  9  1  0  0  0
  2  4  1  0  0  0
  3 10  1  0  0  0
  5 11  1  0  0  0
  6  8  1  0  0  0
  7 12  1  0  0  0
  9 13  1  0  0  0
 10 18  1  0  0  0
 11 22  1  0  0  0
 12 23  1  0  0  0
 13 19  1  0  0  0
 14 18  1  0  0  0
 15 17  1  0  0  0
 16 17  1  0  0  0
 17 14  1  0  0  0
 17 22  1  0  0  0
  1  3  2  0  0  0
  2  9  2  0  0  0
  4 10  2  0  0  0
  5  7  2  0  0  0
  6 11  2  0  0  0
  8 12  2  0  0  0
 13 20  2  0  0  0
 14 21  2  0  0  0
M  CHG  1  19  -1
M  END
> <rmsd>
0.639274895

$$$$
ZINC05768289


 23 24  0  0  0  0  0  0  0  0999 V2000
    1.2990   -1.0066   -0.8051 C   0  0  0  0  0
    2.4069    1.1064   -1.1851 C   0  0  0  0  0
    0.2696   -0.3463   -0.1344 C   0  0  0  0  0
    1.3774    1.7668   -0.5144 C   0  0  0  0  0
   -3.8348   -0.1659   -1.0229 C   0  0  0  0  0
   -3.5030   -0.9405    1.2415 C   0  0  0  0  0
   -3.5633   -1.4477   -1.5011 C   0  0  0  0  0
   -3.2316   -2.2224    0.7632 C   0  0  0  0  0
    2.3676   -0.2803   -1.3305 C   0  0  0  0  0
    0.3088    1.0404    0.0109 C   0  0  0  0  0
   -3.8045    0.0877    0.3485 C   0  0  0  0  0
   -3.2617   -2.4760   -0.6081 C   0  0  0  0  0
    3.4533   -0.9773   -2.0391 C   0  0  0  0  0
   -0.8550    3.0773    0.9271 C   0  0  0  0  0
   -2.1338    3.3777    1.6991 C   0  0  0  0  0
   -3.3437    3.6450    0.8089 C   0  0  0  0  0
   -3.7328    2.4342   -0.0327 C   0  0  0  0  0
   -0.7351    1.7103    0.6925 N   0  0  0  0  0
    4.4283   -0.2834   -2.5150 O   0  0  0  0  0
    3.3923   -2.2579   -2.1602 O   0  0  0  0  0
   -0.0659    3.9591    0.6047 O   0  0  0  0  0
   -4.0723    1.3469    0.8184 O   0  0  0  0  0
   -2.9279   -4.0578   -1.1979 Cl  0  0  0  0  0
  1  3  1  0  0  0
  2  9  1  0  0  0
  4 10  1  0  0  0
  5 11  1  0  0  0
  6  8  1  0  0  0
  7 12  1  0  0  0
  9 13  1  0  0  0
 10 18  1  0  0  0
 11 22  1  0  0  0
 12 23  1  0  0  0
 13 19  1  0  0  0
 14 18  1  0  0  0
 15 14  1  0  0  0
 15 16  1  0  0  0
 16 17  1  0  0  0
 17 22  1  0  0  0
  1  9  2  0  0  0
  2  4  2  0  0  0
  3 10  2  0  0  0
  5  7  2  0  0  0
  6 11  2  0  0  0
  8 12  2  0  0  0
 13 20  2  0  0  0
 14 21  2  0  0  0
M  CHG  1  19  -1
M  END
> <rmsd>
0.414596498

$$$$
ZINC78404018


 23 25  0  0  0  0  0  0  0  0999 V2000
    1.6709    2.5925   -1.4339 C   0  0  0  0  0
   -3.6228   -2.5338    0.6260 C   0  0  0  0  0
    0.5250    2.6312   -0.6397 C   0  0  0  0  0
    2.2978    1.3741   -1.6950 C   0  0  0  0  0
   -3.4758   -1.1506    0.7612 C   0  0  0  0  0
   -2.4049   -1.0061   -1.4168 C   0  0  0  0  0
    0.6327    0.2329   -0.3675 C   0  0  0  0  0
   -2.5511   -2.3774   -1.5322 C   0  0  0  0  0
   -3.1368   -3.1396   -0.5194 C   0  0  0  0  0
    0.0059    1.4514   -0.1064 C   0  0  0  0  0
    1.7787    0.1943   -1.1617 C   0  0  0  0  0
   -2.8680   -0.3923   -0.2520 C   0  0  0  0  0
   -2.1924   -3.2646   -2.6802 C   0  0  0  0  0
   -2.4383   -4.6740   -2.0786 C   0  0  0  0  0
   -3.1636   -5.5993   -3.0422 C   0  0  0  0  0
   -3.2327   -4.4838   -0.8658 N   0  0  0  0  0
   -1.1745    1.4917    0.7140 N   0  0  0  0  0
    2.4159   -1.0460   -1.4300 N   0  0  0  0  0
    3.4443   -1.0584   -2.1488 O   0  0  0  0  0
    1.9332   -2.0959   -0.9408 O   0  0  0  0  0
   -3.7333    1.7763    0.8766 O   0  0  0  0  0
   -2.6500    1.9489   -1.3809 O   0  0  0  0  0
   -2.7060    1.3365   -0.0595 S   0  0  0  0  0
  1  4  1  0  0  0
  2  9  1  0  0  0
  3 10  1  0  0  0
  5 12  1  0  0  0
  6  8  1  0  0  0
  7 11  1  0  0  0
  9 16  1  0  0  0
 10 17  1  0  0  0
 11 18  1  0  0  0
 13  8  1  0  0  0
 13 14  1  0  0  0
 14 15  1  0  0  0
 14 16  1  0  0  0
 18 19  1  0  0  0
 23 12  1  0  0  0
 23 17  1  0  0  0
  1  3  2  0  0  0
  2  5  2  0  0  0
  4 11  2  0  0  0
  6 12  2  0  0  0
  7 10  2  0  0  0
  8  9  2  0  0  0
 18 20  2  0  0  0
 23 21  2  0  0  0
 23 22  2  0  0  0
M  CHG  2  18   1  19  -1
M  END
> <rmsd>
0.551708817

$$$$
ZINC78404016


 23 25  0  0  0  0  0  0  0  0999 V2000
    1.6725    2.5918   -1.4295 C   0  0  0  0  0
   -3.6130   -2.5347    0.6265 C   0  0  0  0  0
    0.5261    2.6303   -0.6358 C   0  0  0  0  0
    2.2981    1.3730   -1.6923 C   0  0  0  0  0
   -3.4795   -1.1496    0.7566 C   0  0  0  0  0
   -2.3811   -1.0068   -1.4077 C   0  0  0  0  0
    0.6310    0.2314   -0.3679 C   0  0  0  0  0
   -2.5277   -2.3778   -1.5249 C   0  0  0  0  0
   -3.1502   -3.1358   -0.5310 C   0  0  0  0  0
    0.0054    1.4501   -0.1050 C   0  0  0  0  0
    1.7774    0.1929   -1.1616 C   0  0  0  0  0
   -2.8705   -0.3905   -0.2551 C   0  0  0  0  0
   -2.0549   -3.2807   -2.6179 C   0  0  0  0  0
   -2.7083   -4.6303   -2.2175 C   0  0  0  0  0
   -1.7528   -5.8040   -2.3592 C   0  0  0  0  0
   -3.1406   -4.4953   -0.8272 N   0  0  0  0  0
   -1.1756    1.4903    0.7148 N   0  0  0  0  0
    2.4133   -1.0476   -1.4317 N   0  0  0  0  0
    3.4421   -1.0598   -2.1500 O   0  0  0  0  0
    1.9291   -2.0978   -0.9448 O   0  0  0  0  0
   -3.7341    1.7773    0.8765 O   0  0  0  0  0
   -2.6494    1.9522   -1.3802 O   0  0  0  0  0
   -2.7067    1.3381   -0.0597 S   0  0  0  0  0
  1  4  1  0  0  0
  2  9  1  0  0  0
  3 10  1  0  0  0
  5 12  1  0  0  0
  6  8  1  0  0  0
  7 11  1  0  0  0
  9 16  1  0  0  0
 10 17  1  0  0  0
 11 18  1  0  0  0
 13  8  1  0  0  0
 13 14  1  0  0  0
 14 15  1  0  0  0
 14 16  1  0  0  0
 18 19  1  0  0  0
 23 12  1  0  0  0
 23 17  1  0  0  0
  1  3  2  0  0  0
  2  5  2  0  0  0
  4 11  2  0  0  0
  6 12  2  0  0  0
  7 10  2  0  0  0
  8  9  2  0  0  0
 18 20  2  0  0  0
 23 21  2  0  0  0
 23 22  2  0  0  0
M  CHG  2  18   1  19  -1
M  END
> <rmsd>
0.555493951

$$$$
ZINC85288787


 23 24  0  0  0  0  0  0  0  0999 V2000
   -3.7045   -3.3448   -0.4079 C   0  0  0  0  0
    2.8244    2.6137    0.9128 C   0  0  0  0  0
    3.4218    1.9756   -0.1740 C   0  0  0  0  0
   -3.4894   -2.1711   -1.1866 C   0  0  0  0  0
   -4.7191   -3.1787    0.5088 C   0  0  0  0  0
    1.4590    2.4552    1.1504 C   0  0  0  0  0
    1.2887    1.0204   -0.7860 C   0  0  0  0  0
    0.6912    1.6585    0.3010 C   0  0  0  0  0
    2.6541    1.1789   -1.0234 C   0  0  0  0  0
   -4.3481   -1.1527   -0.8355 C   0  0  0  0  0
   -3.0122    1.7180   -0.0095 C   0  0  0  0  0
    0.8480    3.1511    2.3233 C   0  0  0  0  0
    0.4617    0.1657   -1.6970 C   0  0  0  0  0
   -4.7785    0.2302   -2.9078 C   0  0  0  0  0
   -1.6678    2.3990   -0.0349 C   0  0  0  0  0
   -4.4440    0.2411   -1.4176 C   0  0  0  0  0
   -0.6507    1.5042    0.5366 N   0  0  0  0  0
   -3.2361    0.9960   -1.1730 N   0  0  0  0  0
    3.2869    0.5413   -2.1265 N   0  0  0  0  0
    3.7668   -0.6059   -1.9688 O   0  0  0  0  0
   -3.7948    1.8023    0.9334 O   0  0  0  0  0
    3.3454    1.1459   -3.2231 O   0  0  0  0  0
   -5.4078   -1.6129    0.4284 S   0  0  0  0  0
  1  4  1  0  0  0
  2  6  1  0  0  0
  3  9  1  0  0  0
  5 23  1  0  0  0
  7  8  1  0  0  0
  8 17  1  0  0  0
  9 19  1  0  0  0
 10 23  1  0  0  0
 11 18  1  0  0  0
 12  6  1  0  0  0
 13  7  1  0  0  0
 14 16  1  0  0  0
 15 11  1  0  0  0
 15 17  1  0  0  0
 16 10  1  0  0  0
 16 18  1  0  0  0
 19 20  1  0  0  0
  1  5  2  0  0  0
  2  3  2  0  0  0
  4 10  2  0  0  0
  6  8  2  0  0  0
  7  9  2  0  0  0
 11 21  2  0  0  0
 19 22  2  0  0  0
M  CHG  2  19   1  20  -1
M  END
> <rmsd>
0.624405622

$$$$
ZINC89268836


 23 25  0  0  0  0  0  0  0  0999 V2000
   -3.1453   -0.6545   -1.6324 C   0  0  0  0  0
   -2.8429   -0.9594    0.7452 C   0  0  0  0  0
   -2.8857   -2.0094   -1.8391 C   0  0  0  0  0
   -2.5835   -2.3142    0.5385 C   0  0  0  0  0
    0.5084   -0.0888    0.6823 C   0  0  0  0  0
    0.9123    0.0723   -2.0116 C   0  0  0  0  0
   -3.1238   -0.1295   -0.3401 C   0  0  0  0  0
    1.3988   -0.9655    0.0724 C   0  0  0  0  0
    1.6103   -0.8901   -1.2998 C   0  0  0  0  0
   -2.6049   -2.8392   -0.7537 C   0  0  0  0  0
   -0.1401    0.8378   -0.1182 C   0  0  0  0  0
   -2.6972    3.4601    0.6124 C   0  0  0  0  0
   -3.5602    2.8220    1.6838 C   0  0  0  0  0
   -3.4063    1.3365   -0.1158 C   0  0  0  0  0
   -2.1840    2.2590   -0.1518 C   0  0  0  0  0
    2.1103   -1.9736    0.9148 C   0  0  0  0  0
    0.0395    0.9412   -1.4542 N   0  0  0  0  0
   -1.0216    1.7024    0.5017 N   0  0  0  0  0
    2.5079   -1.7611   -1.9710 N   0  0  0  0  0
    3.7095   -1.4200   -2.0934 O   0  0  0  0  0
    2.0759   -2.8488   -2.4238 O   0  0  0  0  0
   -4.0708    1.5972    1.1375 O   0  0  0  0  0
   -2.2849   -4.5104   -1.0090 Cl  0  0  0  0  0
  1  7  1  0  0  0
  2  4  1  0  0  0
  3 10  1  0  0  0
  5  8  1  0  0  0
  6  9  1  0  0  0
  9 19  1  0  0  0
 10 23  1  0  0  0
 11 17  1  0  0  0
 11 18  1  0  0  0
 12 13  1  0  0  0
 12 15  1  0  0  0
 13 22  1  0  0  0
 14  7  1  0  0  0
 14 15  1  0  0  0
 14 22  1  0  0  0
 15 18  1  0  0  0
 16  8  1  0  0  0
 19 20  1  0  0  0
  1  3  2  0  0  0
  2  7  2  0  0  0
  4 10  2  0  0  0
  5 11  2  0  0  0
  6 17  2  0  0  0
  8  9  2  0  0  0
 19 21  2  0  0  0
M  CHG  2  19   1  20  -1
M  END
> <rmsd>
0.663911998

$$$$
ZINC89268856


 23 25  0  0  0  0  0  0  0  0999 V2000
   -3.1350   -0.6586   -1.6309 C   0  0  0  0  0
   -2.8464   -0.9590    0.7490 C   0  0  0  0  0
    0.9178    0.0939   -2.1037 C   0  0  0  0  0
   -2.8766   -2.0144   -1.8333 C   0  0  0  0  0
   -2.5882   -2.3146    0.5466 C   0  0  0  0  0
    0.0331    0.9611   -1.4723 C   0  0  0  0  0
   -3.1198   -0.1309   -0.3397 C   0  0  0  0  0
    1.5972   -0.8624   -1.3572 C   0  0  0  0  0
   -2.6033   -2.8424   -0.7446 C   0  0  0  0  0
    1.3585   -0.9101    0.0069 C   0  0  0  0  0
   -0.1357    0.8316   -0.1032 C   0  0  0  0  0
   -2.6922    3.4599    0.6076 C   0  0  0  0  0
   -3.5622    2.8257    1.6755 C   0  0  0  0  0
   -3.4009    1.3361   -0.1200 C   0  0  0  0  0
   -2.1768    2.2563   -0.1511 C   0  0  0  0  0
    2.0571   -1.9141    0.8661 C   0  0  0  0  0
    0.5066   -0.0848    0.6554 N   0  0  0  0  0
   -1.0191    1.6992    0.5100 N   0  0  0  0  0
    2.5020   -1.7503   -1.9965 N   0  0  0  0  0
    3.7075   -1.4181   -2.1023 O   0  0  0  0  0
    2.0718   -2.8431   -2.4384 O   0  0  0  0  0
   -4.0720    1.6006    1.1290 O   0  0  0  0  0
   -2.2849   -4.5147   -0.9946 Cl  0  0  0  0  0
  1  7  1  0  0  0
  2  5  1  0  0  0
  3  6  1  0  0  0
  4  9  1  0  0  0
  8 10  1  0  0  0
  8 19  1  0  0  0
  9 23  1  0  0  0
 11 17  1  0  0  0
 11 18  1  0  0  0
 12 13  1  0  0  0
 12 15  1  0  0  0
 13 22  1  0  0  0
 14  7  1  0  0  0
 14 15  1  0  0  0
 14 22  1  0  0  0
 15 18  1  0  0  0
 16 10  1  0  0  0
 19 20  1  0  0  0
  1  4  2  0  0  0
  2  7  2  0  0  0
  3  8  2  0  0  0
  5  9  2  0  0  0
  6 11  2  0  0  0
 10 17  2  0  0  0
 19 21  2  0  0  0
M  CHG  2  19   1  20  -1
M  END
> <rmsd>
0.663285136

$$$$
ZINC13464101


 23 24  0  0  0  0  0  0  0  0999 V2000
   -2.4218   -2.2331   -1.8186 C   0  0  0  0  0
   -3.2378   -2.5898    0.4273 C   0  0  0  0  0
   -0.0666    2.7382   -1.3401 C   0  0  0  0  0
    0.9831    2.8428   -2.2527 C   0  0  0  0  0
   -2.3881   -0.8578   -1.5879 C   0  0  0  0  0
   -3.2041   -1.2146    0.6580 C   0  0  0  0  0
    0.9939    0.8108   -0.3414 C   0  0  0  0  0
   -2.8467   -3.0991   -0.8110 C   0  0  0  0  0
    2.0435    0.9153   -1.2541 C   0  0  0  0  0
   -0.0611    1.7222   -0.3844 C   0  0  0  0  0
    2.0380    1.9314   -2.2098 C   0  0  0  0  0
   -2.7792   -0.3485   -0.3496 C   0  0  0  0  0
   -2.8815   -4.5328   -1.0518 C   0  0  0  0  0
    3.1505   -0.0559   -1.1944 C   0  0  0  0  0
   -3.1349   -4.9939   -2.4578 C   0  0  0  0  0
   -1.1436    1.6148    0.5564 N   0  0  0  0  0
    3.0601   -1.1387   -1.8842 O   0  0  0  0  0
   -2.7235   -5.3983   -0.1882 O   0  0  0  0  0
    4.1686    0.2124   -0.4545 O   0  0  0  0  0
   -3.6834    1.6699    1.0046 O   0  0  0  0  0
   -2.8716    2.0636   -1.3375 O   0  0  0  0  0
    3.0544    2.0501   -3.1099 O   0  0  0  0  0
   -2.7338    1.3729   -0.0612 S   0  0  0  0  0
  1  8  1  0  0  0
  2  6  1  0  0  0
  3 10  1  0  0  0
  4 11  1  0  0  0
  5 12  1  0  0  0
  7  9  1  0  0  0
  8 13  1  0  0  0
  9 14  1  0  0  0
 10 16  1  0  0  0
 11 22  1  0  0  0
 14 17  1  0  0  0
 15 13  1  0  0  0
 23 12  1  0  0  0
 23 16  1  0  0  0
  1  5  2  0  0  0
  2  8  2  0  0  0
  3  4  2  0  0  0
  6 12  2  0  0  0
  7 10  2  0  0  0
  9 11  2  0  0  0
 13 18  2  0  0  0
 14 19  2  0  0  0
 23 20  2  0  0  0
 23 21  2  0  0  0
M  CHG  1  17  -1
M  END
> <rmsd>
0.70959717

$$$$
ZINC13464101


 23 24  0  0  0  0  0  0  0  0999 V2000
   -2.9078   -2.3064   -1.7796 C   0  0  0  0  0
   -3.5405   -2.5669    0.5375 C   0  0  0  0  0
   -0.1338    2.4653   -1.6167 C   0  0  0  0  0
    0.8329    2.4731   -2.6222 C   0  0  0  0  0
   -2.7448   -0.9354   -1.5810 C   0  0  0  0  0
   -3.3774   -1.1959    0.7362 C   0  0  0  0  0
    0.8582    0.4720   -0.6787 C   0  0  0  0  0
   -3.3058   -3.1221   -0.7205 C   0  0  0  0  0
    1.8248    0.4798   -1.6842 C   0  0  0  0  0
   -0.1212    1.4647   -0.6449 C   0  0  0  0  0
    1.8121    1.4804   -2.6560 C   0  0  0  0  0
   -2.9795   -0.3801   -0.3231 C   0  0  0  0  0
   -3.4755   -4.5514   -0.9279 C   0  0  0  0  0
    2.8525   -0.5764   -1.7048 C   0  0  0  0  0
   -3.8920   -5.0091   -2.2956 C   0  0  0  0  0
   -1.1181    1.4570    0.3916 N   0  0  0  0  0
    2.6143   -1.6574   -2.3614 O   0  0  0  0  0
   -3.3079   -5.4155   -0.0646 O   0  0  0  0  0
    3.9521   -0.3813   -1.0652 O   0  0  0  0  0
   -3.5940    1.7221    1.0657 O   0  0  0  0  0
   -2.9713    2.0185   -1.3476 O   0  0  0  0  0
    2.7481    1.5052   -3.6463 O   0  0  0  0  0
   -2.7722    1.3357   -0.0751 S   0  0  0  0  0
  1  8  1  0  0  0
  2  6  1  0  0  0
  3 10  1  0  0  0
  4 11  1  0  0  0
  5 12  1  0  0  0
  7  9  1  0  0  0
  8 13  1  0  0  0
  9 14  1  0  0  0
 10 16  1  0  0  0
 11 22  1  0  0  0
 14 17  1  0  0  0
 15 13  1  0  0  0
 23 12  1  0  0  0
 23 16  1  0  0  0
  1  5  2  0  0  0
  2  8  2  0  0  0
  3  4  2  0  0  0
  6 12  2  0  0  0
  7 10  2  0  0  0
  9 11  2  0  0  0
 13 18  2  0  0  0
 14 19  2  0  0  0
 23 20  2  0  0  0
 23 21  2  0  0  0
M  CHG  1  17  -1
M  END
> <rmsd>
0.525966465

$$$$
ZINC13709550


 25 27  0  0  0  0  0  0  0  0999 V2000
   -3.4557   -3.1285   -0.3625 C   0  0  0  0  0
   -2.9397   -2.3907    0.6988 C   0  0  0  0  0
   -5.6574    0.8618   -2.0661 C   0  0  0  0  0
   -4.2612   -2.5083   -1.3181 C   0  0  0  0  0
   -3.2272   -1.0299    0.8086 C   0  0  0  0  0
   -5.3698   -0.4989   -2.1760 C   0  0  0  0  0
    1.9778   -0.6711    0.6842 C   0  0  0  0  0
    1.8249    0.3655   -1.4927 C   0  0  0  0  0
    0.8074   -0.0213    1.0759 C   0  0  0  0  0
    0.6545    1.0154   -1.1010 C   0  0  0  0  0
   -5.1415    1.5996   -1.0048 C   0  0  0  0  0
   -4.5609   -1.1395   -1.2232 C   0  0  0  0  0
   -4.0362   -0.3893   -0.1440 C   0  0  0  0  0
    2.4866   -0.4777   -0.6001 C   0  0  0  0  0
    0.1458    0.8220    0.1833 C   0  0  0  0  0
   -4.3360    0.9795   -0.0491 C   0  0  0  0  0
    3.7211   -1.1644   -1.0136 C   0  0  0  0  0
   -1.8268    2.3451   -0.1764 C   0  0  0  0  0
   -2.5984    3.5821    1.8814 C   0  0  0  0  0
   -3.0281    2.8501    0.6187 C   0  0  0  0  0
   -1.0412    1.4825    0.5812 N   0  0  0  0  0
    4.1696   -0.9692   -2.2048 O   0  0  0  0  0
    4.3119   -1.9383   -0.1705 O   0  0  0  0  0
   -1.6455    2.6863   -1.3418 O   0  0  0  0  0
   -3.8527    1.7441    0.9742 O   0  0  0  0  0
  1  2  1  0  0  0
  3  6  1  0  0  0
  4 12  1  0  0  0
  5 13  1  0  0  0
  7 14  1  0  0  0
  8 10  1  0  0  0
  9 15  1  0  0  0
 11 16  1  0  0  0
 12 13  1  0  0  0
 14 17  1  0  0  0
 15 21  1  0  0  0
 16 25  1  0  0  0
 17 22  1  0  0  0
 18 21  1  0  0  0
 19 20  1  0  0  0
 20 18  1  0  0  0
 20 25  1  0  0  0
  1  4  2  0  0  0
  2  5  2  0  0  0
  3 11  2  0  0  0
  6 12  2  0  0  0
  7  9  2  0  0  0
  8 14  2  0  0  0
 10 15  2  0  0  0
 13 16  2  0  0  0
 17 23  2  0  0  0
 18 24  2  0  0  0
M  CHG  1  22  -1
M  END
> <rmsd>
0.343895823

$$$$
ZINC13709550


 25 27  0  0  0  0  0  0  0  0999 V2000
   -3.3854   -3.0771   -0.6176 C   0  0  0  0  0
   -2.7894   -2.3952    0.4391 C   0  0  0  0  0
   -5.8634    0.9365   -1.8104 C   0  0  0  0  0
   -4.2996   -2.4231   -1.4441 C   0  0  0  0  0
   -3.1054   -1.0566    0.6733 C   0  0  0  0  0
   -5.5474   -0.4020   -2.0448 C   0  0  0  0  0
    2.0488   -0.4985    0.0734 C   0  0  0  0  0
    1.6504    0.6783   -1.9987 C   0  0  0  0  0
    0.9039    0.0794    0.6218 C   0  0  0  0  0
    0.5055    1.2562   -1.4503 C   0  0  0  0  0
   -5.2674    1.6184   -0.7537 C   0  0  0  0  0
   -4.6294   -1.0761   -1.2229 C   0  0  0  0  0
   -4.0233   -0.3826   -0.1483 C   0  0  0  0  0
    2.4221   -0.1991   -1.2368 C   0  0  0  0  0
    0.1322    0.9568   -0.1401 C   0  0  0  0  0
   -4.3533    0.9645    0.0729 C   0  0  0  0  0
    3.6297   -0.8099   -1.8156 C   0  0  0  0  0
   -1.9110    2.4272   -0.1977 C   0  0  0  0  0
   -2.5122    3.4912    2.0084 C   0  0  0  0  0
   -3.0425    2.8320    0.7437 C   0  0  0  0  0
   -1.0289    1.5443    0.4168 N   0  0  0  0  0
    3.9523   -0.5172   -3.0275 O   0  0  0  0  0
    4.3239   -1.6174   -1.0911 O   0  0  0  0  0
   -1.8561    2.8538   -1.3476 O   0  0  0  0  0
   -3.7943    1.6746    1.0970 O   0  0  0  0  0
  1  2  1  0  0  0
  3  6  1  0  0  0
  4 12  1  0  0  0
  5 13  1  0  0  0
  7 14  1  0  0  0
  8 10  1  0  0  0
  9 15  1  0  0  0
 11 16  1  0  0  0
 12 13  1  0  0  0
 14 17  1  0  0  0
 15 21  1  0  0  0
 16 25  1  0  0  0
 17 22  1  0  0  0
 18 21  1  0  0  0
 19 20  1  0  0  0
 20 18  1  0  0  0
 20 25  1  0  0  0
  1  4  2  0  0  0
  2  5  2  0  0  0
  3 11  2  0  0  0
  6 12  2  0  0  0
  7  9  2  0  0  0
  8 14  2  0  0  0
 10 15  2  0  0  0
 13 16  2  0  0  0
 17 23  2  0  0  0
 18 24  2  0  0  0
M  CHG  1  22  -1
M  END
> <rmsd>
0.267725736

$$$$
ZINC00084759


 22 24  0  0  0  0  0  0  0  0999 V2000
   -2.8935   -0.5159   -3.3922 C   0  0  0  0  0
    1.5572    1.7142   -1.8046 C   0  0  0  0  0
    1.6904   -0.4168   -0.6741 C   0  0  0  0  0
   -3.1981   -1.8212   -2.9704 C   0  0  0  0  0
    0.4499    2.0568   -1.0285 C   0  0  0  0  0
    0.5831   -0.0743    0.1020 C   0  0  0  0  0
   -2.7388    0.5724   -2.5015 C   0  0  0  0  0
    2.1774    0.4774   -1.6274 C   0  0  0  0  0
   -3.3467   -2.0007   -1.5742 C   0  0  0  0  0
   -3.1815   -0.8402   -0.6241 C   0  0  0  0  0
   -0.0371    1.1625   -0.0753 C   0  0  0  0  0
   -2.8742    0.4543   -1.1078 C   0  0  0  0  0
    3.3464    0.1163   -2.4456 C   0  0  0  0  0
   -3.6359   -3.1537   -0.9497 N   0  0  0  0  0
   -3.3554   -1.1854    0.6619 N   0  0  0  0  0
   -1.1798    1.5148    0.7238 N   0  0  0  0  0
    3.9006   -1.0316   -2.2619 O   0  0  0  0  0
    3.7768    0.9601   -3.3181 O   0  0  0  0  0
   -3.7315    1.8467    0.9052 O   0  0  0  0  0
   -2.4976    3.0293   -0.9329 O   0  0  0  0  0
   -3.6937   -2.8111    0.6742 S   0  0  0  0  0
   -2.6623    1.8532   -0.0867 S   0  0  0  0  0
  1  7  1  0  0  0
  2  8  1  0  0  0
  3  6  1  0  0  0
  4  9  1  0  0  0
  5 11  1  0  0  0
  8 13  1  0  0  0
  9 10  1  0  0  0
 10 12  1  0  0  0
 11 16  1  0  0  0
 13 17  1  0  0  0
 14 21  1  0  0  0
 15 21  1  0  0  0
 22 12  1  0  0  0
 22 16  1  0  0  0
  1  4  2  0  0  0
  2  5  2  0  0  0
  3  8  2  0  0  0
  6 11  2  0  0  0
  7 12  2  0  0  0
  9 14  2  0  0  0
 10 15  2  0  0  0
 13 18  2  0  0  0
 22 19  2  0  0  0
 22 20  2  0  0  0
M  CHG  1  17  -1
M  END
> <rmsd>
0.467898458

$$$$
ZINC03855841


 23 24  0  0  0  0  0  0  0  0999 V2000
    0.8672    2.4985   -2.5770 C   0  0  0  0  0
    1.8379    1.4977   -2.6174 C   0  0  0  0  0
   -0.1087    2.4837   -1.5804 C   0  0  0  0  0
    0.8569    0.4674   -0.6647 C   0  0  0  0  0
   -3.0312   -2.6486    0.5478 C   0  0  0  0  0
   -3.2603   -0.8638   -1.5840 C   0  0  0  0  0
    1.8328    0.4821   -1.6613 C   0  0  0  0  0
   -2.8632   -1.2807    0.7624 C   0  0  0  0  0
   -3.4283   -2.2318   -1.7986 C   0  0  0  0  0
   -0.1139    1.4681   -0.6243 C   0  0  0  0  0
   -3.3137   -3.1242   -0.7328 C   0  0  0  0  0
   -2.9777   -0.3882   -0.3035 C   0  0  0  0  0
    2.8574   -0.5739   -1.7046 C   0  0  0  0  0
   -2.5609   -0.8042    2.1455 C   0  0  0  0  0
   -3.7302   -2.7233   -3.1758 C   0  0  0  0  0
   -4.7951   -4.9839   -0.7854 C   0  0  0  0  0
   -1.1131    1.4528    0.3952 N   0  0  0  0  0
    2.8309   -1.5000   -0.8102 O   0  0  0  0  0
    3.7466   -0.5366   -2.6354 O   0  0  0  0  0
   -3.5991    1.7264    1.0634 O   0  0  0  0  0
   -2.9669    2.0008   -1.3500 O   0  0  0  0  0
   -3.4747   -4.4634   -0.9251 O   0  0  0  0  0
   -2.7697    1.3535   -0.0673 S   0  0  0  0  0
  1  2  1  0  0  0
  3 10  1  0  0  0
  4  7  1  0  0  0
  5  8  1  0  0  0
  6 12  1  0  0  0
  7 13  1  0  0  0
  9 11  1  0  0  0
 10 17  1  0  0  0
 11 22  1  0  0  0
 13 18  1  0  0  0
 14  8  1  0  0  0
 15  9  1  0  0  0
 16 22  1  0  0  0
 23 12  1  0  0  0
 23 17  1  0  0  0
  1  3  2  0  0  0
  2  7  2  0  0  0
  4 10  2  0  0  0
  5 11  2  0  0  0
  6  9  2  0  0  0
  8 12  2  0  0  0
 13 19  2  0  0  0
 23 20  2  0  0  0
 23 21  2  0  0  0
M  CHG  1  18  -1
M  END
> <rmsd>
0.521843493

$$$$
ZINC05508707


 23 24  0  0  0  0  0  0  0  0999 V2000
   -2.9092   -2.3091   -1.7749 C   0  0  0  0  0
   -3.5450   -2.5648    0.5419 C   0  0  0  0  0
   -0.1045    2.4979   -1.5725 C   0  0  0  0  0
    0.8724    2.5201   -2.5679 C   0  0  0  0  0
   -2.7432   -0.9382   -1.5781 C   0  0  0  0  0
   -3.3790   -1.1938    0.7386 C   0  0  0  0  0
    0.8584    0.4732   -0.6724 C   0  0  0  0  0
    1.8353    0.4952   -1.6677 C   0  0  0  0  0
   -3.3101   -3.1224   -0.7149 C   0  0  0  0  0
   -0.1114    1.4745   -0.6247 C   0  0  0  0  0
    1.8423    1.5187   -2.6155 C   0  0  0  0  0
   -2.9780   -0.3806   -0.3213 C   0  0  0  0  0
    2.8529   -0.5705   -1.7033 C   0  0  0  0  0
   -4.9410   -5.0441   -0.6830 C   0  0  0  0  0
   -2.5273   -5.4288   -0.0655 C   0  0  0  0  0
   -3.4897   -4.5877   -0.9255 C   0  0  0  0  0
   -1.1117    1.4523    0.3939 N   0  0  0  0  0
    2.8100   -1.4955   -0.8097 O   0  0  0  0  0
    3.7488   -0.5385   -2.6265 O   0  0  0  0  0
   -3.5978    1.7237    1.0622 O   0  0  0  0  0
   -2.9633    2.0169   -1.3484 O   0  0  0  0  0
    2.7884    1.5577   -3.5956 O   0  0  0  0  0
   -2.7679    1.3589   -0.0709 S   0  0  0  0  0
  1  9  1  0  0  0
  2  6  1  0  0  0
  3 10  1  0  0  0
  4 11  1  0  0  0
  5 12  1  0  0  0
  7  8  1  0  0  0
  8 13  1  0  0  0
 10 17  1  0  0  0
 11 22  1  0  0  0
 13 18  1  0  0  0
 14 16  1  0  0  0
 15 16  1  0  0  0
 16  9  1  0  0  0
 23 12  1  0  0  0
 23 17  1  0  0  0
  1  5  2  0  0  0
  2  9  2  0  0  0
  3  4  2  0  0  0
  6 12  2  0  0  0
  7 10  2  0  0  0
  8 11  2  0  0  0
 13 19  2  0  0  0
 23 20  2  0  0  0
 23 21  2  0  0  0
M  CHG  1  18  -1
M  END
> <rmsd>
0.523342609

$$$$
ZINC13464117


 23 24  0  0  0  0  0  0  0  0999 V2000
   -2.9093   -2.3087   -1.7749 C   0  0  0  0  0
   -3.5451   -2.5644    0.5419 C   0  0  0  0  0
   -0.1045    2.4983   -1.5723 C   0  0  0  0  0
    0.8724    2.5204   -2.5676 C   0  0  0  0  0
   -2.7432   -0.9378   -1.5781 C   0  0  0  0  0
   -3.3790   -1.1935    0.7387 C   0  0  0  0  0
    0.8584    0.4735   -0.6722 C   0  0  0  0  0
    1.8353    0.4955   -1.6675 C   0  0  0  0  0
   -3.3102   -3.1220   -0.7149 C   0  0  0  0  0
   -0.1114    1.4748   -0.6245 C   0  0  0  0  0
    1.8423    1.5190   -2.6153 C   0  0  0  0  0
   -2.9781   -0.3803   -0.3212 C   0  0  0  0  0
    2.8528   -0.5702   -1.7032 C   0  0  0  0  0
   -5.0940   -6.4281   -1.6055 C   0  0  0  0  0
   -3.4899   -4.5873   -0.9255 C   0  0  0  0  0
   -4.9218   -4.9378   -1.3582 C   0  0  0  0  0
   -1.1117    1.4526    0.3941 N   0  0  0  0  0
    2.8100   -1.4952   -0.8095 O   0  0  0  0  0
    3.7488   -0.5382   -2.6264 O   0  0  0  0  0
   -3.5978    1.7240    1.0623 O   0  0  0  0  0
   -2.9633    2.0173   -1.3482 O   0  0  0  0  0
    2.7884    1.5580   -3.5954 O   0  0  0  0  0
   -2.7679    1.3592   -0.0707 S   0  0  0  0  0
  1  9  1  0  0  0
  2  6  1  0  0  0
  3 10  1  0  0  0
  4 11  1  0  0  0
  5 12  1  0  0  0
  7  8  1  0  0  0
  8 13  1  0  0  0
 10 17  1  0  0  0
 11 22  1  0  0  0
 13 18  1  0  0  0
 14 16  1  0  0  0
 15  9  1  0  0  0
 15 16  1  0  0  0
 23 12  1  0  0  0
 23 17  1  0  0  0
  1  5  2  0  0  0
  2  9  2  0  0  0
  3  4  2  0  0  0
  6 12  2  0  0  0
  7 10  2  0  0  0
  8 11  2  0  0  0
 13 19  2  0  0  0
 23 20  2  0  0  0
 23 21  2  0  0  0
M  CHG  1  18  -1
M  END
> <rmsd>
0.523395479

$$$$
ZINC08714924


 23 24  0  0  0  0  0  0  0  0999 V2000
    0.8862    2.5195   -2.5544 C   0  0  0  0  0
    1.8537    1.5159   -2.6011 C   0  0  0  0  0
   -0.0942    2.4977   -1.5624 C   0  0  0  0  0
    0.8605    0.4684   -0.6638 C   0  0  0  0  0
   -2.9201   -2.3225   -1.7610 C   0  0  0  0  0
   -3.3854   -1.1768    0.7398 C   0  0  0  0  0
    1.8408    0.4903   -1.6558 C   0  0  0  0  0
   -3.3266   -3.1216   -0.6925 C   0  0  0  0  0
   -3.5594   -2.5489    0.5578 C   0  0  0  0  0
   -0.1071    1.4720   -0.6171 C   0  0  0  0  0
   -2.7460   -0.9504   -1.5790 C   0  0  0  0  0
   -2.9787   -0.3777   -0.3286 C   0  0  0  0  0
    2.8620   -0.5686   -1.7059 C   0  0  0  0  0
   -3.5072   -4.5878   -0.9119 C   0  0  0  0  0
   -3.9946   -3.3840    1.7170 C   0  0  0  0  0
   -2.1355   -0.8609   -3.8757 C   0  0  0  0  0
   -1.1108    1.4494    0.3978 N   0  0  0  0  0
    2.8283   -1.5042   -0.8215 O   0  0  0  0  0
    3.7555   -0.5246   -2.6322 O   0  0  0  0  0
   -3.5989    1.7244    1.0577 O   0  0  0  0  0
   -2.9550    2.0223   -1.3497 O   0  0  0  0  0
   -2.3493   -0.1884   -2.6364 O   0  0  0  0  0
   -2.7657    1.3607   -0.0731 S   0  0  0  0  0
  1  2  1  0  0  0
  3 10  1  0  0  0
  4  7  1  0  0  0
  5  8  1  0  0  0
  6  9  1  0  0  0
  7 13  1  0  0  0
 10 17  1  0  0  0
 11 12  1  0  0  0
 11 22  1  0  0  0
 13 18  1  0  0  0
 14  8  1  0  0  0
 15  9  1  0  0  0
 16 22  1  0  0  0
 23 12  1  0  0  0
 23 17  1  0  0  0
  1  3  2  0  0  0
  2  7  2  0  0  0
  4 10  2  0  0  0
  5 11  2  0  0  0
  6 12  2  0  0  0
  8  9  2  0  0  0
 13 19  2  0  0  0
 23 20  2  0  0  0
 23 21  2  0  0  0
M  CHG  1  18  -1
M  END
> <rmsd>
0.514701247

$$$$
ZINC03355233


 23 24  0  0  0  0  0  0  0  0999 V2000
    1.6767    2.5930   -1.4250 C   0  0  0  0  0
    0.5303    2.6323   -0.6314 C   0  0  0  0  0
    2.3000    1.3736   -1.6902 C   0  0  0  0  0
   -3.1348   -3.1539   -0.5418 C   0  0  0  0  0
    0.6303    0.2327   -0.3682 C   0  0  0  0  0
   -3.1394   -2.3279   -1.6656 C   0  0  0  0  0
   -2.9977   -2.5995    0.7308 C   0  0  0  0  0
   -3.0068   -0.9472   -1.5170 C   0  0  0  0  0
   -2.8651   -1.2189    0.8795 C   0  0  0  0  0
    0.0070    1.4522   -0.1030 C   0  0  0  0  0
    1.7767    0.1935   -1.1617 C   0  0  0  0  0
   -2.8696   -0.3928   -0.2444 C   0  0  0  0  0
   -3.2885   -2.9478   -3.0165 C   0  0  0  0  0
   -2.9971   -3.5076    1.9169 C   0  0  0  0  0
   -3.0146   -0.0725   -2.7311 C   0  0  0  0  0
   -2.7207   -0.6383    2.2512 C   0  0  0  0  0
   -1.1747    1.4932    0.7154 N   0  0  0  0  0
    2.4109   -1.0476   -1.4329 N   0  0  0  0  0
    3.4406   -1.0604   -2.1501 O   0  0  0  0  0
    1.9248   -2.0979   -0.9478 O   0  0  0  0  0
   -3.7332    1.7801    0.8775 O   0  0  0  0  0
   -2.6502    1.9447   -1.3806 O   0  0  0  0  0
   -2.7056    1.3451   -0.0564 S   0  0  0  0  0
  1  3  1  0  0  0
  2 10  1  0  0  0
  4  6  1  0  0  0
  5 11  1  0  0  0
  7  9  1  0  0  0
  8 12  1  0  0  0
 10 17  1  0  0  0
 11 18  1  0  0  0
 13  6  1  0  0  0
 14  7  1  0  0  0
 15  8  1  0  0  0
 16  9  1  0  0  0
 18 19  1  0  0  0
 23 12  1  0  0  0
 23 17  1  0  0  0
  1  2  2  0  0  0
  3 11  2  0  0  0
  4  7  2  0  0  0
  5 10  2  0  0  0
  6  8  2  0  0  0
  9 12  2  0  0  0
 18 20  2  0  0  0
 23 21  2  0  0  0
 23 22  2  0  0  0
M  CHG  2  18   1  19  -1
M  END
> <rmsd>
0.557795882

$$$$
ZINC00287864


 23 24  0  0  0  0  0  0  0  0999 V2000
    0.7176    2.4618   -2.7136 C   0  0  0  0  0
   -0.1815    2.4648   -1.6472 C   0  0  0  0  0
    1.5585    1.3670   -2.9139 C   0  0  0  0  0
   -3.7362   -2.5312    0.6049 C   0  0  0  0  0
   -3.2312   -2.2930   -1.7457 C   0  0  0  0  0
   -3.5974   -3.0938   -0.6639 C   0  0  0  0  0
   -3.5089   -1.1677    0.7919 C   0  0  0  0  0
   -3.0038   -0.9295   -1.5587 C   0  0  0  0  0
    0.6014    0.2783   -0.9811 C   0  0  0  0  0
   -0.2396    1.3731   -0.7809 C   0  0  0  0  0
    1.5004    0.2753   -2.0475 C   0  0  0  0  0
   -3.1427   -0.3669   -0.2899 C   0  0  0  0  0
   -3.8394   -4.5520   -0.8638 C   0  0  0  0  0
   -3.6663   -0.6011    2.1656 C   0  0  0  0  0
   -2.6128   -0.1029   -2.7406 C   0  0  0  0  0
    0.5344   -0.8913   -0.0476 C   0  0  0  0  0
   -1.1743    1.3978    0.3118 N   0  0  0  0  0
    2.3688   -0.8287   -2.2725 N   0  0  0  0  0
    3.4982   -0.8313   -1.7287 O   0  0  0  0  0
    1.9785   -1.7661   -3.0076 O   0  0  0  0  0
   -3.5935    1.7538    1.1332 O   0  0  0  0  0
   -3.1061    2.0321   -1.3131 O   0  0  0  0  0
   -2.8553    1.3477   -0.0536 S   0  0  0  0  0
  1  3  1  0  0  0
  2 10  1  0  0  0
  4  6  1  0  0  0
  5  8  1  0  0  0
  7 12  1  0  0  0
  9 11  1  0  0  0
 10 17  1  0  0  0
 11 18  1  0  0  0
 13  6  1  0  0  0
 14  7  1  0  0  0
 15  8  1  0  0  0
 16  9  1  0  0  0
 18 19  1  0  0  0
 23 12  1  0  0  0
 23 17  1  0  0  0
  1  2  2  0  0  0
  3 11  2  0  0  0
  4  7  2  0  0  0
  5  6  2  0  0  0
  8 12  2  0  0  0
  9 10  2  0  0  0
 18 20  2  0  0  0
 23 21  2  0  0  0
 23 22  2  0  0  0
M  CHG  2  18   1  19  -1
M  END
> <rmsd>
0.395334303

$$$$
ZINC91054483


 23 24  0  0  0  0  0  0  0  0999 V2000
    0.7081    2.4423   -2.7454 C   0  0  0  0  0
   -3.7468   -2.1893   -1.7492 C   0  0  0  0  0
    1.5474    1.3438   -2.9307 C   0  0  0  0  0
   -3.5189   -0.8293   -1.5395 C   0  0  0  0  0
   -3.2078   -2.6363    0.5632 C   0  0  0  0  0
   -3.5914   -3.0928   -0.6978 C   0  0  0  0  0
   -0.1896    2.4620   -1.6779 C   0  0  0  0  0
   -2.9798   -1.2763    0.7729 C   0  0  0  0  0
    0.5912    0.2844   -0.9813 C   0  0  0  0  0
   -0.2481    1.3830   -0.7959 C   0  0  0  0  0
    1.4889    0.2648   -2.0487 C   0  0  0  0  0
   -3.1353   -0.3729   -0.2785 C   0  0  0  0  0
   -3.8353   -4.5472   -0.9227 C   0  0  0  0  0
   -1.0762    3.6522   -1.5046 C   0  0  0  0  0
   -2.5709   -0.8200    2.1352 C   0  0  0  0  0
    0.5260   -0.8722   -0.0316 C   0  0  0  0  0
   -1.1742    1.4065    0.3041 N   0  0  0  0  0
    2.3564   -0.8428   -2.2590 N   0  0  0  0  0
    3.4868   -0.8380   -1.7169 O   0  0  0  0  0
    1.9645   -1.7906   -2.9798 O   0  0  0  0  0
   -3.5900    1.7493    1.1412 O   0  0  0  0  0
   -3.1213    2.0231   -1.3093 O   0  0  0  0  0
   -2.8581    1.3399   -0.0501 S   0  0  0  0  0
  1  3  1  0  0  0
  2  6  1  0  0  0
  4 12  1  0  0  0
  5  8  1  0  0  0
  7 10  1  0  0  0
  9 11  1  0  0  0
 10 17  1  0  0  0
 11 18  1  0  0  0
 13  6  1  0  0  0
 14  7  1  0  0  0
 15  8  1  0  0  0
 16  9  1  0  0  0
 18 19  1  0  0  0
 23 12  1  0  0  0
 23 17  1  0  0  0
  1  7  2  0  0  0
  2  4  2  0  0  0
  3 11  2  0  0  0
  5  6  2  0  0  0
  8 12  2  0  0  0
  9 10  2  0  0  0
 18 20  2  0  0  0
 23 21  2  0  0  0
 23 22  2  0  0  0
M  CHG  2  18   1  19  -1
M  END
> <rmsd>
0.403860748

$$$$
ZINC91054483


 23 24  0  0  0  0  0  0  0  0999 V2000
    0.7291    2.4705   -2.7202 C   0  0  0  0  0
   -3.7296   -2.5140    0.6114 C   0  0  0  0  0
    1.5647    1.3710   -2.9154 C   0  0  0  0  0
   -3.4985   -1.1493    0.7836 C   0  0  0  0  0
   -3.2397   -2.2997   -1.7447 C   0  0  0  0  0
   -3.6001   -3.0892   -0.6527 C   0  0  0  0  0
   -0.1738    2.4804   -1.6569 C   0  0  0  0  0
   -3.0087   -0.9349   -1.5725 C   0  0  0  0  0
    0.5945    0.2908   -0.9844 C   0  0  0  0  0
   -0.2411    1.3905   -0.7891 C   0  0  0  0  0
    1.4974    0.2810   -2.0476 C   0  0  0  0  0
   -3.1381   -0.3597   -0.3083 C   0  0  0  0  0
   -3.8473   -4.5488   -0.8363 C   0  0  0  0  0
   -1.0563    3.6719   -1.4728 C   0  0  0  0  0
   -2.6235   -0.1177   -2.7621 C   0  0  0  0  0
    0.5198   -0.8776   -0.0500 C   0  0  0  0  0
   -1.1726    1.4037    0.3065 N   0  0  0  0  0
    2.3613   -0.8274   -2.2677 N   0  0  0  0  0
    3.4890   -0.8343   -1.7201 O   0  0  0  0  0
    1.9691   -1.7642   -3.0026 O   0  0  0  0  0
   -3.5911    1.7460    1.1361 O   0  0  0  0  0
   -3.1091    2.0492   -1.3083 O   0  0  0  0  0
   -2.8550    1.3488   -0.0568 S   0  0  0  0  0
  1  3  1  0  0  0
  2  6  1  0  0  0
  4 12  1  0  0  0
  5  8  1  0  0  0
  7 10  1  0  0  0
  9 11  1  0  0  0
 10 17  1  0  0  0
 11 18  1  0  0  0
 13  6  1  0  0  0
 14  7  1  0  0  0
 15  8  1  0  0  0
 16  9  1  0  0  0
 18 19  1  0  0  0
 23 12  1  0  0  0
 23 17  1  0  0  0
  1  7  2  0  0  0
  2  4  2  0  0  0
  3 11  2  0  0  0
  5  6  2  0  0  0
  8 12  2  0  0  0
  9 10  2  0  0  0
 18 20  2  0  0  0
 23 21  2  0  0  0
 23 22  2  0  0  0
M  CHG  2  18   1  19  -1
M  END
> <rmsd>
0.39678219

$$$$
ZINC91054410


 23 24  0  0  0  0  0  0  0  0999 V2000
    0.7168    2.4542   -2.7344 C   0  0  0  0  0
   -3.2247   -2.2853   -1.7580 C   0  0  0  0  0
   -3.7161   -2.5359    0.5942 C   0  0  0  0  0
    1.5538    1.3546   -2.9246 C   0  0  0  0  0
   -3.0027   -0.9217   -1.5665 C   0  0  0  0  0
   -3.4940   -1.1722    0.7857 C   0  0  0  0  0
   -3.5815   -3.0925   -0.6778 C   0  0  0  0  0
   -0.1828    2.4697   -1.6685 C   0  0  0  0  0
    0.5915    0.2864   -0.9828 C   0  0  0  0  0
   -0.2455    1.3859   -0.7927 C   0  0  0  0  0
    1.4912    0.2707   -2.0489 C   0  0  0  0  0
   -3.1373   -0.3651   -0.2945 C   0  0  0  0  0
   -1.0669    3.6610   -1.4900 C   0  0  0  0  0
    0.5219   -0.8754   -0.0400 C   0  0  0  0  0
   -5.2761   -4.8591   -1.2197 C   0  0  0  0  0
   -3.8197   -4.5504   -0.8824 C   0  0  0  0  0
   -1.1735    1.4052    0.3057 N   0  0  0  0  0
    2.3564   -0.8377   -2.2638 N   0  0  0  0  0
    3.4857   -0.8386   -1.7198 O   0  0  0  0  0
    1.9636   -1.7803   -2.9907 O   0  0  0  0  0
   -3.5908    1.7483    1.1386 O   0  0  0  0  0
   -3.1146    2.0379   -1.3086 O   0  0  0  0  0
   -2.8572    1.3413   -0.0542 S   0  0  0  0  0
  1  4  1  0  0  0
  2  7  1  0  0  0
  3  6  1  0  0  0
  5 12  1  0  0  0
  8 10  1  0  0  0
  9 11  1  0  0  0
 10 17  1  0  0  0
 11 18  1  0  0  0
 13  8  1  0  0  0
 14  9  1  0  0  0
 15 16  1  0  0  0
 16  7  1  0  0  0
 18 19  1  0  0  0
 23 12  1  0  0  0
 23 17  1  0  0  0
  1  8  2  0  0  0
  2  5  2  0  0  0
  3  7  2  0  0  0
  4 11  2  0  0  0
  6 12  2  0  0  0
  9 10  2  0  0  0
 18 20  2  0  0  0
 23 21  2  0  0  0
 23 22  2  0  0  0
M  CHG  2  18   1  19  -1
M  END
> <rmsd>
0.403212667

$$$$
ZINC91054481


 23 24  0  0  0  0  0  0  0  0999 V2000
   -3.5879   -3.0932   -0.6983 C   0  0  0  0  0
   -3.2063   -2.6363    0.5631 C   0  0  0  0  0
    0.7081    2.4421   -2.7453 C   0  0  0  0  0
    1.5472    1.3434   -2.9307 C   0  0  0  0  0
   -3.5172   -0.8296   -1.5398 C   0  0  0  0  0
   -3.7433   -2.1899   -1.7498 C   0  0  0  0  0
   -0.1895    2.4618   -1.6779 C   0  0  0  0  0
   -2.9801   -1.2759    0.7730 C   0  0  0  0  0
    0.5909    0.2841   -0.9813 C   0  0  0  0  0
   -0.2481    1.3828   -0.7958 C   0  0  0  0  0
    1.4887    0.2645   -2.0488 C   0  0  0  0  0
   -3.1356   -0.3726   -0.2784 C   0  0  0  0  0
   -4.1501   -2.6793   -3.0986 C   0  0  0  0  0
   -1.0759    3.6521   -1.5046 C   0  0  0  0  0
   -2.5727   -0.8195    2.1359 C   0  0  0  0  0
    0.5257   -0.8724   -0.0316 C   0  0  0  0  0
   -1.1742    1.4064    0.3041 N   0  0  0  0  0
    2.3560   -0.8432   -2.2590 N   0  0  0  0  0
    3.4863   -0.8385   -1.7170 O   0  0  0  0  0
    1.9640   -1.7909   -2.9799 O   0  0  0  0  0
   -3.5900    1.7496    1.1414 O   0  0  0  0  0
   -3.1214    2.0234   -1.3091 O   0  0  0  0  0
   -2.8581    1.3402   -0.0500 S   0  0  0  0  0
  1  6  1  0  0  0
  2  8  1  0  0  0
  3  4  1  0  0  0
  5 12  1  0  0  0
  7 10  1  0  0  0
  9 11  1  0  0  0
 10 17  1  0  0  0
 11 18  1  0  0  0
 13  6  1  0  0  0
 14  7  1  0  0  0
 15  8  1  0  0  0
 16  9  1  0  0  0
 18 19  1  0  0  0
 23 12  1  0  0  0
 23 17  1  0  0  0
  1  2  2  0  0  0
  3  7  2  0  0  0
  4 11  2  0  0  0
  5  6  2  0  0  0
  8 12  2  0  0  0
  9 10  2  0  0  0
 18 20  2  0  0  0
 23 21  2  0  0  0
 23 22  2  0  0  0
M  CHG  2  18   1  19  -1
M  END
> <rmsd>
0.40441221

$$$$
ZINC91054481


 23 24  0  0  0  0  0  0  0  0999 V2000
   -3.6033   -3.0892   -0.6528 C   0  0  0  0  0
   -3.2410   -2.3001   -1.7445 C   0  0  0  0  0
    0.7294    2.4696   -2.7204 C   0  0  0  0  0
    1.5650    1.3700   -2.9156 C   0  0  0  0  0
   -3.4998   -1.1495    0.7838 C   0  0  0  0  0
   -3.7327   -2.5140    0.6114 C   0  0  0  0  0
   -0.1734    2.4796   -1.6571 C   0  0  0  0  0
   -3.0081   -0.9357   -1.5719 C   0  0  0  0  0
    0.5950    0.2901   -0.9843 C   0  0  0  0  0
   -0.2406    1.3898   -0.7891 C   0  0  0  0  0
    1.4979    0.2803   -2.0476 C   0  0  0  0  0
   -3.1375   -0.3604   -0.3078 C   0  0  0  0  0
   -4.1215   -3.3580    1.7778 C   0  0  0  0  0
   -1.0559    3.6711   -1.4732 C   0  0  0  0  0
   -2.6216   -0.1190   -2.7614 C   0  0  0  0  0
    0.5206   -0.8780   -0.0496 C   0  0  0  0  0
   -1.1720    1.4032    0.3066 N   0  0  0  0  0
    2.3619   -0.8281   -2.2675 N   0  0  0  0  0
    3.4895   -0.8348   -1.7200 O   0  0  0  0  0
    1.9697   -1.7651   -3.0022 O   0  0  0  0  0
   -3.5904    1.7456    1.1364 O   0  0  0  0  0
   -3.1087    2.0483   -1.3081 O   0  0  0  0  0
   -2.8544    1.3483   -0.0565 S   0  0  0  0  0
  1  6  1  0  0  0
  2  8  1  0  0  0
  3  4  1  0  0  0
  5 12  1  0  0  0
  7 10  1  0  0  0
  9 11  1  0  0  0
 10 17  1  0  0  0
 11 18  1  0  0  0
 13  6  1  0  0  0
 14  7  1  0  0  0
 15  8  1  0  0  0
 16  9  1  0  0  0
 18 19  1  0  0  0
 23 12  1  0  0  0
 23 17  1  0  0  0
  1  2  2  0  0  0
  3  7  2  0  0  0
  4 11  2  0  0  0
  5  6  2  0  0  0
  8 12  2  0  0  0
  9 10  2  0  0  0
 18 20  2  0  0  0
 23 21  2  0  0  0
 23 22  2  0  0  0
M  CHG  2  18   1  19  -1
M  END
> <rmsd>
0.396650195

$$$$
ZINC04694366


 23 24  0  0  0  0  0  0  0  0999 V2000
    1.0385    0.0873    0.1970 C   0  0  0  0  0
    0.2393    1.4166   -1.6553 C   0  0  0  0  0
    2.1235   -0.3327   -0.5724 C   0  0  0  0  0
    1.3244    0.9967   -2.4247 C   0  0  0  0  0
   -3.2903   -0.7363    1.2891 C   0  0  0  0  0
   -3.7727    0.1346   -0.9122 C   0  0  0  0  0
   -2.9135   -1.9548    0.7245 C   0  0  0  0  0
   -3.3959   -1.0839   -1.4769 C   0  0  0  0  0
    0.0964    0.9619   -0.3445 C   0  0  0  0  0
    2.2665    0.1220   -1.8833 C   0  0  0  0  0
   -3.7200    0.3085    0.4708 C   0  0  0  0  0
   -2.9664   -2.1286   -0.6585 C   0  0  0  0  0
   -2.0316    2.2475    0.0604 C   0  0  0  0  0
   -3.6973    3.8636    1.0921 C   0  0  0  0  0
   -2.4357    2.2438    2.5586 C   0  0  0  0  0
   -3.0580    2.4786    1.1836 C   0  0  0  0  0
   -1.0051    1.3878    0.4364 N   0  0  0  0  0
    3.3711   -0.3053   -2.6665 N   0  0  0  0  0
    4.2073   -1.0921   -2.1604 O   0  0  0  0  0
   -2.1635    2.7948   -1.0325 O   0  0  0  0  0
    3.4808    0.1153   -3.8437 O   0  0  0  0  0
   -4.0884    1.5038    1.0244 O   0  0  0  0  0
   -2.5005   -3.6315   -1.3554 Cl  0  0  0  0  0
  1  9  1  0  0  0
  2  4  1  0  0  0
  3 10  1  0  0  0
  5 11  1  0  0  0
  6  8  1  0  0  0
  7 12  1  0  0  0
  9 17  1  0  0  0
 10 18  1  0  0  0
 11 22  1  0  0  0
 12 23  1  0  0  0
 13 17  1  0  0  0
 14 16  1  0  0  0
 15 16  1  0  0  0
 16 13  1  0  0  0
 16 22  1  0  0  0
 18 19  1  0  0  0
  1  3  2  0  0  0
  2  9  2  0  0  0
  4 10  2  0  0  0
  5  7  2  0  0  0
  6 11  2  0  0  0
  8 12  2  0  0  0
 13 20  2  0  0  0
 18 21  2  0  0  0
M  CHG  2  18   1  19  -1
M  END
> <rmsd>
0.598300517

$$$$
ZINC18707254


 23 24  0  0  0  0  0  0  0  0999 V2000
   -2.4315   -2.2437   -1.8156 C   0  0  0  0  0
   -3.2488   -2.5904    0.4314 C   0  0  0  0  0
   -0.0536    2.7211   -1.3495 C   0  0  0  0  0
    0.9957    2.8205   -2.2631 C   0  0  0  0  0
   -2.3893   -0.8683   -1.5881 C   0  0  0  0  0
   -3.2065   -1.2149    0.6589 C   0  0  0  0  0
    1.0010    0.7916   -0.3483 C   0  0  0  0  0
   -2.8613   -3.1049   -0.8060 C   0  0  0  0  0
   -0.0510    1.7067   -0.3920 C   0  0  0  0  0
    2.0476    1.9055   -2.2194 C   0  0  0  0  0
    2.0503    0.8910   -1.2620 C   0  0  0  0  0
   -2.7768   -0.3538   -0.3509 C   0  0  0  0  0
   -4.3363   -5.1442   -0.9440 C   0  0  0  0  0
   -1.9646   -5.3576   -0.1168 C   0  0  0  0  0
   -2.9086   -4.5753   -1.0495 C   0  0  0  0  0
    3.0988    2.0282   -3.1562 N   0  0  0  0  0
   -1.1328    1.6048    0.5500 N   0  0  0  0  0
    3.1104   -0.0561   -1.1965 N   0  0  0  0  0
    3.0182   -1.1142   -1.8620 O   0  0  0  0  0
    4.1039    0.1967   -0.4757 O   0  0  0  0  0
   -3.6719    1.6703    1.0010 O   0  0  0  0  0
   -2.8612    2.0571   -1.3427 O   0  0  0  0  0
   -2.7244    1.3678   -0.0654 S   0  0  0  0  0
  1  8  1  0  0  0
  2  6  1  0  0  0
  3  9  1  0  0  0
  4 10  1  0  0  0
  5 12  1  0  0  0
  7 11  1  0  0  0
  9 17  1  0  0  0
 10 16  1  0  0  0
 11 18  1  0  0  0
 13 15  1  0  0  0
 14 15  1  0  0  0
 15  8  1  0  0  0
 18 19  1  0  0  0
 23 12  1  0  0  0
 23 17  1  0  0  0
  1  5  2  0  0  0
  2  8  2  0  0  0
  3  4  2  0  0  0
  6 12  2  0  0  0
  7  9  2  0  0  0
 10 11  2  0  0  0
 18 20  2  0  0  0
 23 21  2  0  0  0
 23 22  2  0  0  0
M  CHG  2  18   1  19  -1
M  END
> <rmsd>
0.710543334

$$$$
ZINC92684679


 24 26  0  0  0  0  0  0  0  0999 V2000
   -4.3499   -2.0859    0.0527 C   0  0  0  0  0
    1.4355    1.1678    0.4620 C   0  0  0  0  0
    2.6471    0.8096   -0.1290 C   0  0  0  0  0
   -4.6541   -0.9263    0.7682 C   0  0  0  0  0
   -2.5421   -0.9446   -1.1127 C   0  0  0  0  0
    0.2993    0.7853   -1.6356 C   0  0  0  0  0
   -2.8569    0.2000   -0.4018 C   0  0  0  0  0
   -3.3020   -2.0946   -0.8831 C   0  0  0  0  0
    0.2616    1.1556   -0.2912 C   0  0  0  0  0
    2.6848    0.4393   -1.4732 C   0  0  0  0  0
   -3.8983    0.2019    0.5157 C   0  0  0  0  0
    1.5109    0.4271   -2.2266 C   0  0  0  0  0
   -3.2668    2.3260    0.3558 C   0  0  0  0  0
   -2.1993    1.5279   -0.4027 C   0  0  0  0  0
   -2.9933   -3.3474   -1.6330 C   0  0  0  0  0
    0.5452    0.6591   -4.3877 C   0  0  0  0  0
   -0.9424    1.5104    0.2971 N   0  0  0  0  0
    3.9292    0.0774   -2.0587 N   0  0  0  0  0
    4.2884   -1.1233   -2.0249 O   0  0  0  0  0
    4.6304    0.9697   -2.5916 O   0  0  0  0  0
   -4.0708    1.4102    1.1424 O   0  0  0  0  0
    1.5223    0.0674   -3.5415 O   0  0  0  0  0
    1.0797    0.7399   -5.6337 F   0  0  0  0  0
   -0.5243   -0.1689   -4.4802 F   0  0  0  0  0
  1  8  1  0  0  0
  2  9  1  0  0  0
  3 10  1  0  0  0
  4 11  1  0  0  0
  5  7  1  0  0  0
  6 12  1  0  0  0
  9 17  1  0  0  0
 10 18  1  0  0  0
 11 21  1  0  0  0
 12 22  1  0  0  0
 13 14  1  0  0  0
 13 21  1  0  0  0
 14  7  1  0  0  0
 14 17  1  0  0  0
 15  8  1  0  0  0
 16 22  1  0  0  0
 16 23  1  0  0  0
 16 24  1  0  0  0
 18 19  1  0  0  0
  1  4  2  0  0  0
  2  3  2  0  0  0
  5  8  2  0  0  0
  6  9  2  0  0  0
  7 11  2  0  0  0
 10 12  2  0  0  0
 18 20  2  0  0  0
M  CHG  2  18   1  19  -1
M  END
> <rmsd>
0.558002293

$$$$
ZINC92684679


 24 26  0  0  0  0  0  0  0  0999 V2000
   -4.2946   -2.1086    0.0778 C   0  0  0  0  0
    1.2779    0.5909    0.7145 C   0  0  0  0  0
    2.5203    0.2220    0.1991 C   0  0  0  0  0
   -4.6418   -0.9293    0.7396 C   0  0  0  0  0
   -2.4331   -0.9924   -1.0258 C   0  0  0  0  0
    0.5911    1.3403   -1.4772 C   0  0  0  0  0
   -2.7905    0.1716   -0.3686 C   0  0  0  0  0
   -3.1987   -2.1396   -0.8008 C   0  0  0  0  0
    0.3132    1.1501   -0.1236 C   0  0  0  0  0
    2.7982    0.4122   -1.1545 C   0  0  0  0  0
   -3.8789    0.1954    0.4921 C   0  0  0  0  0
    1.8337    0.9714   -1.9927 C   0  0  0  0  0
   -3.2499    2.3174    0.2994 C   0  0  0  0  0
   -2.1400    1.5030   -0.3764 C   0  0  0  0  0
   -2.8448   -3.4130   -1.4938 C   0  0  0  0  0
    2.0080    2.4988   -3.8076 C   0  0  0  0  0
   -0.9219    1.5152    0.3889 N   0  0  0  0  0
    4.0706    0.0302   -1.6621 N   0  0  0  0  0
    4.2236   -1.1348   -2.0994 O   0  0  0  0  0
    5.0017    0.8698   -1.6575 O   0  0  0  0  0
   -4.0901    1.4213    1.0708 O   0  0  0  0  0
    2.0814    1.1657   -3.3192 O   0  0  0  0  0
    2.8741    2.5999   -4.8488 F   0  0  0  0  0
    0.7698    2.7204   -4.3132 F   0  0  0  0  0
  1  8  1  0  0  0
  2  9  1  0  0  0
  3 10  1  0  0  0
  4 11  1  0  0  0
  5  7  1  0  0  0
  6 12  1  0  0  0
  9 17  1  0  0  0
 10 18  1  0  0  0
 11 21  1  0  0  0
 12 22  1  0  0  0
 13 14  1  0  0  0
 13 21  1  0  0  0
 14  7  1  0  0  0
 14 17  1  0  0  0
 15  8  1  0  0  0
 16 22  1  0  0  0
 16 23  1  0  0  0
 16 24  1  0  0  0
 18 19  1  0  0  0
  1  4  2  0  0  0
  2  3  2  0  0  0
  5  8  2  0  0  0
  6  9  2  0  0  0
  7 11  2  0  0  0
 10 12  2  0  0  0
 18 20  2  0  0  0
M  CHG  2  18   1  19  -1
M  END
> <rmsd>
0.535541713

$$$$
ZINC03407894


 23 25  0  0  0  0  0  0  0  0999 V2000
    1.6663    2.5899   -1.4404 C   0  0  0  0  0
    0.5221    2.6305   -0.6438 C   0  0  0  0  0
    2.2925    1.3707   -1.7000 C   0  0  0  0  0
   -3.6077   -2.5292    0.6107 C   0  0  0  0  0
   -3.4720   -1.1488    0.7598 C   0  0  0  0  0
    0.6301    0.2329   -0.3664 C   0  0  0  0  0
   -2.3920   -1.0146   -1.3993 C   0  0  0  0  0
    0.0039    1.4520   -0.1068 C   0  0  0  0  0
    1.7743    0.1923   -1.1631 C   0  0  0  0  0
   -3.1421   -3.1511   -0.5482 C   0  0  0  0  0
   -2.5150   -2.3969   -1.5432 C   0  0  0  0  0
   -2.8698   -0.3920   -0.2458 C   0  0  0  0  0
   -3.1331   -4.9744   -1.9839 C   0  0  0  0  0
   -1.8743   -4.3729   -2.5777 C   0  0  0  0  0
   -1.1757    1.4943    0.7148 N   0  0  0  0  0
    2.4115   -1.0484   -1.4286 N   0  0  0  0  0
    3.4392   -1.0625   -2.1486 O   0  0  0  0  0
    1.9299   -2.0973   -0.9359 O   0  0  0  0  0
   -3.7343    1.7791    0.8790 O   0  0  0  0  0
   -2.6529    1.9469   -1.3797 O   0  0  0  0  0
   -3.3222   -4.5061   -0.6458 O   0  0  0  0  0
   -2.0080   -2.9534   -2.6885 O   0  0  0  0  0
   -2.7078    1.3364   -0.0572 S   0  0  0  0  0
  1  2  1  0  0  0
  3  9  1  0  0  0
  4 10  1  0  0  0
  5 12  1  0  0  0
  6  8  1  0  0  0
  7 11  1  0  0  0
  8 15  1  0  0  0
  9 16  1  0  0  0
 10 21  1  0  0  0
 11 22  1  0  0  0
 13 14  1  0  0  0
 13 21  1  0  0  0
 14 22  1  0  0  0
 16 17  1  0  0  0
 23 12  1  0  0  0
 23 15  1  0  0  0
  1  3  2  0  0  0
  2  8  2  0  0  0
  4  5  2  0  0  0
  6  9  2  0  0  0
  7 12  2  0  0  0
 10 11  2  0  0  0
 16 18  2  0  0  0
 23 19  2  0  0  0
 23 20  2  0  0  0
M  CHG  2  16   1  17  -1
M  END
> <rmsd>
0.559017777

$$$$
ZINC43586964


 23 24  0  0  0  0  0  0  0  0999 V2000
    1.9447    1.6041   -2.4659 C   0  0  0  0  0
   -2.7632   -2.3062   -1.7786 C   0  0  0  0  0
   -3.4679   -2.5736    0.5168 C   0  0  0  0  0
    1.0401    2.6606   -2.3621 C   0  0  0  0  0
   -2.6288   -0.9325   -1.5774 C   0  0  0  0  0
   -3.3335   -1.1999    0.7181 C   0  0  0  0  0
    0.8310    0.4715   -0.6455 C   0  0  0  0  0
    1.8402    0.5095   -1.6077 C   0  0  0  0  0
   -3.1828   -3.1267   -0.7316 C   0  0  0  0  0
   -0.0737    1.5281   -0.5417 C   0  0  0  0  0
    0.0310    2.6227   -1.3999 C   0  0  0  0  0
   -2.9139   -0.3794   -0.3290 C   0  0  0  0  0
    2.7947   -0.6051   -1.7176 C   0  0  0  0  0
   -4.8761   -6.4651   -1.6770 C   0  0  0  0  0
   -3.3287   -4.5952   -0.9470 C   0  0  0  0  0
   -4.7393   -4.9719   -1.4249 C   0  0  0  0  0
   -1.1053    1.4874    0.4445 N   0  0  0  0  0
    2.6769   -1.6040   -0.9131 O   0  0  0  0  0
    3.7173   -0.5454   -2.6145 O   0  0  0  0  0
   -3.6161    1.7130    1.0329 O   0  0  0  0  0
   -2.9103    2.0180   -1.3564 O   0  0  0  0  0
   -0.8338    3.6432   -1.3088 F   0  0  0  0  0
   -2.7438    1.3636   -0.0729 S   0  0  0  0  0
  1  8  1  0  0  0
  2  9  1  0  0  0
  3  6  1  0  0  0
  4 11  1  0  0  0
  5 12  1  0  0  0
  7 10  1  0  0  0
  8 13  1  0  0  0
 10 17  1  0  0  0
 11 22  1  0  0  0
 13 18  1  0  0  0
 14 16  1  0  0  0
 15  9  1  0  0  0
 15 16  1  0  0  0
 23 12  1  0  0  0
 23 17  1  0  0  0
  1  4  2  0  0  0
  2  5  2  0  0  0
  3  9  2  0  0  0
  6 12  2  0  0  0
  7  8  2  0  0  0
 10 11  2  0  0  0
 13 19  2  0  0  0
 23 20  2  0  0  0
 23 21  2  0  0  0
M  CHG  1  18  -1
M  END
> <rmsd>
0.576507449

$$$$
ZINC12771820


 23 24  0  0  0  0  0  0  0  0999 V2000
    1.9451    1.6039   -2.4663 C   0  0  0  0  0
   -2.7626   -2.3065   -1.7783 C   0  0  0  0  0
   -3.4672   -2.5737    0.5172 C   0  0  0  0  0
    1.0404    2.6604   -2.3625 C   0  0  0  0  0
   -2.6283   -0.9328   -1.5772 C   0  0  0  0  0
   -3.3328   -1.2000    0.7183 C   0  0  0  0  0
    0.8315    0.4715   -0.6457 C   0  0  0  0  0
    1.8406    0.5094   -1.6080 C   0  0  0  0  0
   -3.1822   -3.1270   -0.7311 C   0  0  0  0  0
   -0.0732    1.5280   -0.5419 C   0  0  0  0  0
    0.0313    2.6226   -1.4003 C   0  0  0  0  0
   -2.9133   -0.3796   -0.3289 C   0  0  0  0  0
    2.7952   -0.6052   -1.7178 C   0  0  0  0  0
   -4.7775   -5.0784   -0.7501 C   0  0  0  0  0
   -2.3782   -5.4186   -0.0556 C   0  0  0  0  0
   -3.3280   -4.5955   -0.9464 C   0  0  0  0  0
   -1.1048    1.4874    0.4443 N   0  0  0  0  0
    2.6775   -1.6040   -0.9132 O   0  0  0  0  0
    3.7177   -0.5455   -2.6147 O   0  0  0  0  0
   -3.6156    1.7129    1.0327 O   0  0  0  0  0
   -2.9099    2.0177   -1.3566 O   0  0  0  0  0
   -0.8335    3.6430   -1.3093 F   0  0  0  0  0
   -2.7434    1.3634   -0.0730 S   0  0  0  0  0
  1  8  1  0  0  0
  2  9  1  0  0  0
  3  6  1  0  0  0
  4 11  1  0  0  0
  5 12  1  0  0  0
  7 10  1  0  0  0
  8 13  1  0  0  0
 10 17  1  0  0  0
 11 22  1  0  0  0
 13 18  1  0  0  0
 14 16  1  0  0  0
 15 16  1  0  0  0
 16  9  1  0  0  0
 23 12  1  0  0  0
 23 17  1  0  0  0
  1  4  2  0  0  0
  2  5  2  0  0  0
  3  9  2  0  0  0
  6 12  2  0  0  0
  7  8  2  0  0  0
 10 11  2  0  0  0
 13 19  2  0  0  0
 23 20  2  0  0  0
 23 21  2  0  0  0
M  CHG  1  18  -1
M  END
> <rmsd>
0.576429427

$$$$
ZINC06361988


 23 24  0  0  0  0  0  0  0  0999 V2000
    0.7314    2.4835   -2.6917 C   0  0  0  0  0
   -0.1724    2.4775   -1.6292 C   0  0  0  0  0
    1.5710    1.3891   -2.8991 C   0  0  0  0  0
   -3.2418   -2.2924   -1.7433 C   0  0  0  0  0
   -3.7389   -2.5309    0.6089 C   0  0  0  0  0
   -3.0124   -0.9293   -1.5567 C   0  0  0  0  0
   -3.5095   -1.1676    0.7956 C   0  0  0  0  0
    0.6033    0.2829   -0.9817 C   0  0  0  0  0
   -0.2364    1.3773   -0.7742 C   0  0  0  0  0
    1.5071    0.2889   -2.0442 C   0  0  0  0  0
   -3.6052   -3.0931   -0.6605 C   0  0  0  0  0
   -3.1462   -0.3669   -0.2872 C   0  0  0  0  0
    0.5301   -0.8958   -0.0603 C   0  0  0  0  0
   -5.1611   -6.0784   -1.9472 C   0  0  0  0  0
   -4.3216   -4.8303   -2.1183 C   0  0  0  0  0
   -1.1708    1.3928    0.3087 N   0  0  0  0  0
    2.3744   -0.8144   -2.2763 N   0  0  0  0  0
    3.5013   -0.8247   -1.7276 O   0  0  0  0  0
    1.9856   -1.7437   -3.0225 O   0  0  0  0  0
   -3.5951    1.7558    1.1336 O   0  0  0  0  0
   -3.1059    2.0309   -1.3127 O   0  0  0  0  0
   -3.8287   -4.4233   -0.8427 O   0  0  0  0  0
   -2.8541    1.3626   -0.0505 S   0  0  0  0  0
  1  3  1  0  0  0
  2  9  1  0  0  0
  4 11  1  0  0  0
  5  7  1  0  0  0
  6 12  1  0  0  0
  8 10  1  0  0  0
  9 16  1  0  0  0
 10 17  1  0  0  0
 11 22  1  0  0  0
 13  8  1  0  0  0
 14 15  1  0  0  0
 15 22  1  0  0  0
 17 18  1  0  0  0
 23 12  1  0  0  0
 23 16  1  0  0  0
  1  2  2  0  0  0
  3 10  2  0  0  0
  4  6  2  0  0  0
  5 11  2  0  0  0
  7 12  2  0  0  0
  8  9  2  0  0  0
 17 19  2  0  0  0
 23 20  2  0  0  0
 23 21  2  0  0  0
M  CHG  2  17   1  18  -1
M  END
> <rmsd>
0.391955525

$$$$
ZINC77636578


 23 24  0  0  0  0  0  0  0  0999 V2000
    5.5469   -0.5446    2.2968 C   0  0  0  0  0
    4.4051   -0.9506    2.9874 C   0  0  0  0  0
    5.4615   -0.2054    0.9464 C   0  0  0  0  0
    3.1779   -1.0173    2.3279 C   0  0  0  0  0
   -3.5479   -0.9985   -1.3716 C   0  0  0  0  0
   -3.6370   -2.3491   -1.1155 C   0  0  0  0  0
   -3.8572   -1.0041    0.9320 C   0  0  0  0  0
   -3.6753   -0.2193   -0.1855 C   0  0  0  0  0
    4.2343   -0.2721    0.2869 C   0  0  0  0  0
    3.0925   -0.6781    0.9775 C   0  0  0  0  0
   -0.1295    0.4485   -0.2370 C   0  0  0  0  0
   -4.7326    1.9226   -1.0251 C   0  0  0  0  0
    0.8315    0.0503    0.8628 C   0  0  0  0  0
   -2.2071    1.7714   -0.5971 C   0  0  0  0  0
   -3.6175    1.3116   -0.1587 C   0  0  0  0  0
   -1.1409    1.2441    0.2528 N   0  0  0  0  0
    4.1655    0.0774   -1.0898 N   0  0  0  0  0
    4.3404   -0.8164   -1.9514 O   0  0  0  0  0
    0.0097    0.0886   -1.4028 O   0  0  0  0  0
    3.9318    1.2692   -1.4014 O   0  0  0  0  0
   -3.8406    1.7699    1.1822 O   0  0  0  0  0
    1.8719   -0.7538    0.3491 O   0  0  0  0  0
   -3.8735   -2.6731    0.5493 S   0  0  0  0  0
  1  2  1  0  0  0
  3  9  1  0  0  0
  4 10  1  0  0  0
  5  8  1  0  0  0
  6 23  1  0  0  0
  7 23  1  0  0  0
  9 17  1  0  0  0
 10 22  1  0  0  0
 11 16  1  0  0  0
 12 15  1  0  0  0
 13 11  1  0  0  0
 13 22  1  0  0  0
 14 15  1  0  0  0
 14 16  1  0  0  0
 15  8  1  0  0  0
 15 21  1  0  0  0
 17 18  1  0  0  0
  1  3  2  0  0  0
  2  4  2  0  0  0
  5  6  2  0  0  0
  7  8  2  0  0  0
  9 10  2  0  0  0
 11 19  2  0  0  0
 17 20  2  0  0  0
M  CHG  2  17   1  18  -1
M  END
> <rmsd>
0.416674137

$$$$
ZINC05262276


 23 24  0  0  0  0  0  0  0  0999 V2000
   -2.8715   -2.3799   -1.6000 C   0  0  0  0  0
   -3.7336   -2.5136    0.6530 C   0  0  0  0  0
    2.0308    1.2225   -2.1647 C   0  0  0  0  0
    1.1797    2.3275   -2.1827 C   0  0  0  0  0
   -2.6864   -1.0059   -1.4478 C   0  0  0  0  0
   -3.5486   -1.1394    0.8052 C   0  0  0  0  0
    0.7532    0.2682   -0.3496 C   0  0  0  0  0
   -3.3951   -3.1338   -0.5496 C   0  0  0  0  0
   -0.0977    1.3733   -0.3675 C   0  0  0  0  0
    1.8174    0.1928   -1.2482 C   0  0  0  0  0
    0.1156    2.4030   -1.2842 C   0  0  0  0  0
   -3.0249   -0.3855   -0.2451 C   0  0  0  0  0
   -4.9777   -4.9430   -1.2630 C   0  0  0  0  0
   -0.3463    4.5985   -0.4953 C   0  0  0  0  0
   -3.5950   -4.6025   -0.7127 C   0  0  0  0  0
   -1.1897    1.4378    0.5660 N   0  0  0  0  0
    2.6835   -0.9324   -1.2303 N   0  0  0  0  0
    3.6345   -0.9807   -2.0474 O   0  0  0  0  0
    2.4743   -1.8475   -0.3975 O   0  0  0  0  0
   -3.7105    1.7932    0.9831 O   0  0  0  0  0
   -2.8501    1.9618   -1.3686 O   0  0  0  0  0
   -0.7053    3.4905   -1.3179 O   0  0  0  0  0
   -2.7939    1.3344   -0.0539 S   0  0  0  0  0
  1  8  1  0  0  0
  2  6  1  0  0  0
  3 10  1  0  0  0
  4 11  1  0  0  0
  5 12  1  0  0  0
  7  9  1  0  0  0
  9 16  1  0  0  0
 10 17  1  0  0  0
 11 22  1  0  0  0
 13 15  1  0  0  0
 14 22  1  0  0  0
 15  8  1  0  0  0
 17 18  1  0  0  0
 23 12  1  0  0  0
 23 16  1  0  0  0
  1  5  2  0  0  0
  2  8  2  0  0  0
  3  4  2  0  0  0
  6 12  2  0  0  0
  7 10  2  0  0  0
  9 11  2  0  0  0
 17 19  2  0  0  0
 23 20  2  0  0  0
 23 21  2  0  0  0
M  CHG  2  17   1  18  -1
M  END
> <rmsd>
0.427595019

$$$$
ZINC91054480


 23 24  0  0  0  0  0  0  0  0999 V2000
    0.7335    2.4777   -2.7119 C   0  0  0  0  0
    1.5691    1.3785   -2.9094 C   0  0  0  0  0
   -3.2381   -2.2858   -1.7551 C   0  0  0  0  0
   -3.7259   -2.5342    0.5981 C   0  0  0  0  0
   -3.0116   -0.9227   -1.5642 C   0  0  0  0  0
   -3.4993   -1.1712    0.7889 C   0  0  0  0  0
   -0.1718    2.4839   -1.6506 C   0  0  0  0  0
    0.5940    0.2914   -0.9847 C   0  0  0  0  0
   -0.2415    1.3907   -0.7871 C   0  0  0  0  0
    1.4993    0.2853   -2.0458 C   0  0  0  0  0
   -3.5955   -3.0915   -0.6739 C   0  0  0  0  0
   -3.1421   -0.3655   -0.2922 C   0  0  0  0  0
   -1.0541    3.6752   -1.4639 C   0  0  0  0  0
    0.5167   -0.8804   -0.0548 C   0  0  0  0  0
   -3.6646   -4.9257   -2.1862 C   0  0  0  0  0
   -1.1718    1.4002    0.3023 N   0  0  0  0  0
    2.3633   -0.8227   -2.2683 N   0  0  0  0  0
    3.4896   -0.8321   -1.7182 O   0  0  0  0  0
    1.9722   -1.7565   -3.0076 O   0  0  0  0  0
   -3.5919    1.7497    1.1393 O   0  0  0  0  0
   -3.1161    2.0366   -1.3082 O   0  0  0  0  0
   -3.8161   -4.4217   -0.8600 O   0  0  0  0  0
   -2.8555    1.3642   -0.0500 S   0  0  0  0  0
  1  7  1  0  0  0
  2 10  1  0  0  0
  3 11  1  0  0  0
  4  6  1  0  0  0
  5 12  1  0  0  0
  8  9  1  0  0  0
  9 16  1  0  0  0
 10 17  1  0  0  0
 11 22  1  0  0  0
 13  7  1  0  0  0
 14  8  1  0  0  0
 15 22  1  0  0  0
 17 18  1  0  0  0
 23 12  1  0  0  0
 23 16  1  0  0  0
  1  2  2  0  0  0
  3  5  2  0  0  0
  4 11  2  0  0  0
  6 12  2  0  0  0
  7  9  2  0  0  0
  8 10  2  0  0  0
 17 19  2  0  0  0
 23 20  2  0  0  0
 23 21  2  0  0  0
M  CHG  2  17   1  18  -1
M  END
> <rmsd>
0.399252981

$$$$
ZINC13340990


 23 24  0  0  0  0  0  0  0  0999 V2000
   -3.3183   -3.1225   -0.7052 C   0  0  0  0  0
   -3.5532   -2.5601    0.5495 C   0  0  0  0  0
   -2.9146   -2.3139   -1.7676 C   0  0  0  0  0
   -3.3846   -1.1889    0.7417 C   0  0  0  0  0
    1.8484    1.5113   -2.6067 C   0  0  0  0  0
   -0.1006    2.4928   -1.5699 C   0  0  0  0  0
    0.8584    0.4681   -0.6653 C   0  0  0  0  0
    0.8790    2.5133   -2.5626 C   0  0  0  0  0
    1.8381    0.4887   -1.6581 C   0  0  0  0  0
   -0.1109    1.4702   -0.6212 C   0  0  0  0  0
   -2.7460   -0.9426   -1.5754 C   0  0  0  0  0
   -2.9809   -0.3801   -0.3207 C   0  0  0  0  0
    0.8898    3.5924   -3.5636 C   0  0  0  0  0
    2.8611   -0.5689   -1.7048 C   0  0  0  0  0
   -1.1126    1.4502    0.3961 N   0  0  0  0  0
   -0.0166    4.5050   -3.5006 O   0  0  0  0  0
    2.8292   -1.5012   -0.8171 O   0  0  0  0  0
    1.8051    3.5883   -4.4696 O   0  0  0  0  0
    3.7541   -0.5265   -2.6316 O   0  0  0  0  0
   -3.5992    1.7261    1.0605 O   0  0  0  0  0
   -2.9608    2.0167   -1.3494 O   0  0  0  0  0
   -2.3582   -0.1755   -2.6039 F   0  0  0  0  0
   -2.7683    1.3592   -0.0711 S   0  0  0  0  0
  1  2  1  0  0  0
  3 11  1  0  0  0
  4 12  1  0  0  0
  5  8  1  0  0  0
  6 10  1  0  0  0
  7  9  1  0  0  0
  8 13  1  0  0  0
  9 14  1  0  0  0
 10 15  1  0  0  0
 11 22  1  0  0  0
 13 16  1  0  0  0
 14 17  1  0  0  0
 23 12  1  0  0  0
 23 15  1  0  0  0
  1  3  2  0  0  0
  2  4  2  0  0  0
  5  9  2  0  0  0
  6  8  2  0  0  0
  7 10  2  0  0  0
 11 12  2  0  0  0
 13 18  2  0  0  0
 14 19  2  0  0  0
 23 20  2  0  0  0
 23 21  2  0  0  0
M  CHG  2  16  -1  17  -1
M  END
> <rmsd>
0.517226875

$$$$
ZINC13340990


 23 24  0  0  0  0  0  0  0  0999 V2000
   -3.3106   -3.1232   -0.7140 C   0  0  0  0  0
   -2.5327   -2.3787   -1.6005 C   0  0  0  0  0
   -3.9239   -2.4969    0.3711 C   0  0  0  0  0
   -2.3678   -1.0079   -1.4020 C   0  0  0  0  0
    1.8463    1.5077   -2.6088 C   0  0  0  0  0
   -0.1023    2.4901   -1.5722 C   0  0  0  0  0
    0.8579    0.4671   -0.6653 C   0  0  0  0  0
    0.8767    2.5094   -2.5656 C   0  0  0  0  0
    1.8369    0.4865   -1.6588 C   0  0  0  0  0
   -0.1117    1.4689   -0.6220 C   0  0  0  0  0
   -3.7591   -1.1262    0.5696 C   0  0  0  0  0
   -2.9810   -0.3816   -0.3169 C   0  0  0  0  0
    0.8866    3.5871   -3.5683 C   0  0  0  0  0
    2.8601   -0.5710   -1.7046 C   0  0  0  0  0
   -1.1127    1.4502    0.3959 N   0  0  0  0  0
   -0.0201    4.4995   -3.5060 O   0  0  0  0  0
    2.8291   -1.5020   -0.8154 O   0  0  0  0  0
    1.8013    3.5818   -4.4748 O   0  0  0  0  0
    3.7526   -0.5297   -2.6320 O   0  0  0  0  0
   -3.5989    1.7264    1.0616 O   0  0  0  0  0
   -2.9622    2.0136   -1.3491 O   0  0  0  0  0
   -4.3528   -0.5355    1.6161 F   0  0  0  0  0
   -2.7687    1.3581   -0.0700 S   0  0  0  0  0
  1  2  1  0  0  0
  3 11  1  0  0  0
  4 12  1  0  0  0
  5  8  1  0  0  0
  6 10  1  0  0  0
  7  9  1  0  0  0
  8 13  1  0  0  0
  9 14  1  0  0  0
 10 15  1  0  0  0
 11 22  1  0  0  0
 13 16  1  0  0  0
 14 17  1  0  0  0
 23 12  1  0  0  0
 23 15  1  0  0  0
  1  3  2  0  0  0
  2  4  2  0  0  0
  5  9  2  0  0  0
  6  8  2  0  0  0
  7 10  2  0  0  0
 11 12  2  0  0  0
 13 18  2  0  0  0
 14 19  2  0  0  0
 23 20  2  0  0  0
 23 21  2  0  0  0
M  CHG  2  16  -1  17  -1
M  END
> <rmsd>
0.520068347

$$$$
ZINC03173341


 23 24  0  0  0  0  0  0  0  0999 V2000
   -0.0363    2.7641   -1.2886 C   0  0  0  0  0
   -3.2493   -2.5872    0.4359 C   0  0  0  0  0
   -2.4232   -2.2398   -1.8077 C   0  0  0  0  0
    1.0240    2.8798   -2.1875 C   0  0  0  0  0
   -3.2110   -1.2115    0.6630 C   0  0  0  0  0
   -2.3848   -0.8640   -1.5806 C   0  0  0  0  0
    0.9948    0.8034   -0.3246 C   0  0  0  0  0
    2.0551    0.9190   -1.2235 C   0  0  0  0  0
   -0.0510    1.7260   -0.3571 C   0  0  0  0  0
   -2.8553   -3.1014   -0.7995 C   0  0  0  0  0
    2.0697    1.9573   -2.1549 C   0  0  0  0  0
   -2.7788   -0.3499   -0.3453 C   0  0  0  0  0
    3.1520   -0.0642   -1.1752 C   0  0  0  0  0
   -1.1365    1.6079    0.5627 N   0  0  0  0  0
   -2.8956   -4.5013   -1.0312 N   0  0  0  0  0
    3.0587   -1.1294   -1.8912 O   0  0  0  0  0
   -3.2888   -5.2592   -0.1115 O   0  0  0  0  0
    4.1646    0.1766   -0.4184 O   0  0  0  0  0
   -2.5372   -4.9434   -2.1499 O   0  0  0  0  0
   -3.6875    1.6744    0.9973 O   0  0  0  0  0
   -2.8569    2.0601   -1.3396 O   0  0  0  0  0
    3.0966    2.0871   -3.0413 O   0  0  0  0  0
   -2.7300    1.3956   -0.0568 S   0  0  0  0  0
  1  9  1  0  0  0
  2  5  1  0  0  0
  3 10  1  0  0  0
  4 11  1  0  0  0
  6 12  1  0  0  0
  7  8  1  0  0  0
  8 13  1  0  0  0
  9 14  1  0  0  0
 10 15  1  0  0  0
 11 22  1  0  0  0
 13 16  1  0  0  0
 15 17  1  0  0  0
 23 12  1  0  0  0
 23 14  1  0  0  0
  1  4  2  0  0  0
  2 10  2  0  0  0
  3  6  2  0  0  0
  5 12  2  0  0  0
  7  9  2  0  0  0
  8 11  2  0  0  0
 13 18  2  0  0  0
 15 19  2  0  0  0
 23 20  2  0  0  0
 23 21  2  0  0  0
M  CHG  3  15   1  16  -1  17  -1
M  END
> <rmsd>
0.704253674

$$$$
ZINC03173341


 23 24  0  0  0  0  0  0  0  0999 V2000
   -0.1048    2.4985   -1.5727 C   0  0  0  0  0
   -3.5440   -2.5646    0.5419 C   0  0  0  0  0
   -2.9082   -2.3084   -1.7748 C   0  0  0  0  0
    0.8719    2.5205   -2.5682 C   0  0  0  0  0
   -3.3786   -1.1937    0.7389 C   0  0  0  0  0
   -2.7428   -0.9374   -1.5778 C   0  0  0  0  0
    0.8583    0.4739   -0.6725 C   0  0  0  0  0
    1.8351    0.4959   -1.6679 C   0  0  0  0  0
   -0.1117    1.4752   -0.6248 C   0  0  0  0  0
   -3.3087   -3.1220   -0.7150 C   0  0  0  0  0
    1.8419    1.5193   -2.6158 C   0  0  0  0  0
   -2.9781   -0.3801   -0.3210 C   0  0  0  0  0
    2.8527   -0.5697   -1.7035 C   0  0  0  0  0
   -1.1118    1.4530    0.3939 N   0  0  0  0  0
   -3.4782   -4.5170   -0.9160 N   0  0  0  0  0
    2.6107   -1.6323   -2.3879 O   0  0  0  0  0
   -3.8404   -5.2313    0.0502 O   0  0  0  0  0
    3.9475   -0.4005   -1.0486 O   0  0  0  0  0
   -3.2618   -4.9984   -2.0546 O   0  0  0  0  0
   -3.5979    1.7243    1.0623 O   0  0  0  0  0
   -2.9636    2.0173   -1.3484 O   0  0  0  0  0
    2.7879    1.5582   -3.5960 O   0  0  0  0  0
   -2.7681    1.3594   -0.0707 S   0  0  0  0  0
  1  9  1  0  0  0
  2  5  1  0  0  0
  3 10  1  0  0  0
  4 11  1  0  0  0
  6 12  1  0  0  0
  7  8  1  0  0  0
  8 13  1  0  0  0
  9 14  1  0  0  0
 10 15  1  0  0  0
 11 22  1  0  0  0
 13 16  1  0  0  0
 15 17  1  0  0  0
 23 12  1  0  0  0
 23 14  1  0  0  0
  1  4  2  0  0  0
  2 10  2  0  0  0
  3  6  2  0  0  0
  5 12  2  0  0  0
  7  9  2  0  0  0
  8 11  2  0  0  0
 13 18  2  0  0  0
 15 19  2  0  0  0
 23 20  2  0  0  0
 23 21  2  0  0  0
M  CHG  3  15   1  16  -1  17  -1
M  END
> <rmsd>
0.523466706

$$$$
ZINC03149151


 23 24  0  0  0  0  0  0  0  0999 V2000
    1.6657    2.5890   -1.4417 C   0  0  0  0  0
    0.5216    2.6299   -0.6448 C   0  0  0  0  0
    2.2919    1.3698   -1.7010 C   0  0  0  0  0
   -3.6012   -2.5302    0.6104 C   0  0  0  0  0
   -3.4717   -1.1495    0.7601 C   0  0  0  0  0
   -2.3977   -1.0161   -1.4000 C   0  0  0  0  0
    0.6298    0.2324   -0.3665 C   0  0  0  0  0
   -2.5273   -2.3968   -1.5497 C   0  0  0  0  0
    0.0037    1.4517   -0.1072 C   0  0  0  0  0
    1.7739    0.1916   -1.1633 C   0  0  0  0  0
   -3.1290   -3.1540   -0.5444 C   0  0  0  0  0
   -2.8699   -0.3924   -0.2450 C   0  0  0  0  0
   -2.0228   -3.0397   -2.7763 C   0  0  0  0  0
   -1.1757    1.4942    0.7146 N   0  0  0  0  0
    2.4111   -1.0492   -1.4286 N   0  0  0  0  0
   -0.8055   -3.4563   -2.7995 O   0  0  0  0  0
    3.4387   -1.0635   -2.1488 O   0  0  0  0  0
   -2.8173   -3.1616   -3.7814 O   0  0  0  0  0
    1.9297   -2.0978   -0.9352 O   0  0  0  0  0
   -3.7344    1.7790    0.8792 O   0  0  0  0  0
   -2.6534    1.9461   -1.3798 O   0  0  0  0  0
   -3.2647   -4.5040   -0.6721 O   0  0  0  0  0
   -2.7080    1.3358   -0.0570 S   0  0  0  0  0
  1  2  1  0  0  0
  3 10  1  0  0  0
  4 11  1  0  0  0
  5 12  1  0  0  0
  6  8  1  0  0  0
  7  9  1  0  0  0
  8 13  1  0  0  0
  9 14  1  0  0  0
 10 15  1  0  0  0
 11 22  1  0  0  0
 13 16  1  0  0  0
 15 17  1  0  0  0
 23 12  1  0  0  0
 23 14  1  0  0  0
  1  3  2  0  0  0
  2  9  2  0  0  0
  4  5  2  0  0  0
  6 12  2  0  0  0
  7 10  2  0  0  0
  8 11  2  0  0  0
 13 18  2  0  0  0
 15 19  2  0  0  0
 23 20  2  0  0  0
 23 21  2  0  0  0
M  CHG  3  15   1  16  -1  17  -1
M  END
> <rmsd>
0.559886098

$$$$
ZINC32588738


 23 24  0  0  0  0  0  0  0  0999 V2000
   -0.0538    2.7210   -1.3491 C   0  0  0  0  0
    0.9953    2.8203   -2.2631 C   0  0  0  0  0
   -3.2494   -2.5904    0.4306 C   0  0  0  0  0
   -3.2070   -1.2148    0.6584 C   0  0  0  0  0
   -2.3900   -0.8677   -1.5886 C   0  0  0  0  0
    1.0003    0.7910   -0.3487 C   0  0  0  0  0
   -2.4323   -2.2431   -1.8164 C   0  0  0  0  0
   -0.0512    1.7064   -0.3919 C   0  0  0  0  0
    2.0469    1.9049   -2.2198 C   0  0  0  0  0
    2.0494    0.8902   -1.2626 C   0  0  0  0  0
   -2.8618   -3.1045   -0.8069 C   0  0  0  0  0
   -2.7774   -0.3535   -0.3511 C   0  0  0  0  0
   -2.0139   -2.7761   -3.1471 C   0  0  0  0  0
   -3.3608   -5.2565    0.0738 C   0  0  0  0  0
    3.0976    2.0271   -3.1572 N   0  0  0  0  0
   -1.1330    1.6046    0.5502 N   0  0  0  0  0
    3.1097   -0.0568   -1.1968 N   0  0  0  0  0
    3.0180   -1.1147   -1.8625 O   0  0  0  0  0
    4.1028    0.1963   -0.4756 O   0  0  0  0  0
   -3.6721    1.6706    1.0012 O   0  0  0  0  0
   -2.8615    2.0576   -1.3425 O   0  0  0  0  0
   -2.9093   -4.4506   -1.0126 O   0  0  0  0  0
   -2.7248    1.3681   -0.0652 S   0  0  0  0  0
  1  8  1  0  0  0
  2  9  1  0  0  0
  3 11  1  0  0  0
  4 12  1  0  0  0
  5  7  1  0  0  0
  6 10  1  0  0  0
  8 16  1  0  0  0
  9 15  1  0  0  0
 10 17  1  0  0  0
 11 22  1  0  0  0
 13  7  1  0  0  0
 14 22  1  0  0  0
 17 18  1  0  0  0
 23 12  1  0  0  0
 23 16  1  0  0  0
  1  2  2  0  0  0
  3  4  2  0  0  0
  5 12  2  0  0  0
  6  8  2  0  0  0
  7 11  2  0  0  0
  9 10  2  0  0  0
 17 19  2  0  0  0
 23 20  2  0  0  0
 23 21  2  0  0  0
M  CHG  2  17   1  18  -1
M  END
> <rmsd>
0.710728109

$$$$
ZINC07357260


 23 24  0  0  0  0  0  0  0  0999 V2000
   -0.0240    2.7465   -1.2987 C   0  0  0  0  0
    1.0359    2.8568   -2.1988 C   0  0  0  0  0
   -2.4304   -2.2485   -1.8067 C   0  0  0  0  0
   -3.2543   -2.5897    0.4387 C   0  0  0  0  0
   -2.3870   -0.8726   -1.5817 C   0  0  0  0  0
   -3.2110   -1.2138    0.6637 C   0  0  0  0  0
    1.0010    0.7839   -0.3321 C   0  0  0  0  0
   -0.0415    1.7101   -0.3654 C   0  0  0  0  0
    2.0784    1.9306   -2.1654 C   0  0  0  0  0
    2.0609    0.8941   -1.2321 C   0  0  0  0  0
   -2.8641   -3.1071   -0.7964 C   0  0  0  0  0
   -2.7773   -0.3553   -0.3465 C   0  0  0  0  0
   -3.8577   -6.2181   -2.3202 C   0  0  0  0  0
   -3.1475   -4.8817   -2.3541 C   0  0  0  0  0
    3.1407    2.0648   -3.0881 N   0  0  0  0  0
   -1.1264    1.5978    0.5560 N   0  0  0  0  0
    3.1111   -0.0648   -1.1778 N   0  0  0  0  0
    3.0159   -1.1059   -1.8689 O   0  0  0  0  0
    4.0992    0.1612   -0.4408 O   0  0  0  0  0
   -3.6765    1.6748    0.9936 O   0  0  0  0  0
   -2.8474    2.0534   -1.3450 O   0  0  0  0  0
   -2.9061   -4.4496   -1.0158 O   0  0  0  0  0
   -2.7214    1.3906   -0.0611 S   0  0  0  0  0
  1  8  1  0  0  0
  2  9  1  0  0  0
  3 11  1  0  0  0
  4  6  1  0  0  0
  5 12  1  0  0  0
  7 10  1  0  0  0
  8 16  1  0  0  0
  9 15  1  0  0  0
 10 17  1  0  0  0
 11 22  1  0  0  0
 13 14  1  0  0  0
 14 22  1  0  0  0
 17 18  1  0  0  0
 23 12  1  0  0  0
 23 16  1  0  0  0
  1  2  2  0  0  0
  3  5  2  0  0  0
  4 11  2  0  0  0
  6 12  2  0  0  0
  7  8  2  0  0  0
  9 10  2  0  0  0
 17 19  2  0  0  0
 23 20  2  0  0  0
 23 21  2  0  0  0
M  CHG  2  17   1  18  -1
M  END
> <rmsd>
0.707247615

$$$$
ZINC55581664


 23 24  0  0  0  0  0  0  0  0999 V2000
    1.9362    1.5945   -2.4776 C   0  0  0  0  0
   -3.2856   -2.2354   -1.8226 C   0  0  0  0  0
    1.0293    2.6495   -2.3785 C   0  0  0  0  0
   -3.1486   -0.8650   -1.6019 C   0  0  0  0  0
    0.8306    0.4716   -0.6463 C   0  0  0  0  0
   -2.9479   -2.6488    0.5337 C   0  0  0  0  0
    1.8369    0.5055   -1.6117 C   0  0  0  0  0
   -2.8108   -1.2784    0.7545 C   0  0  0  0  0
   -0.0764    1.5266   -0.5471 C   0  0  0  0  0
   -3.1853   -3.1274   -0.7549 C   0  0  0  0  0
    0.0229    2.6155   -1.4132 C   0  0  0  0  0
   -2.9112   -0.3865   -0.3133 C   0  0  0  0  0
    2.7940   -0.6074   -1.7166 C   0  0  0  0  0
   -2.5590   -0.7983    2.1465 C   0  0  0  0  0
   -3.2058   -5.3201    0.1655 C   0  0  0  0  0
   -1.1052    1.4902    0.4423 N   0  0  0  0  0
    2.6809   -1.6011   -0.9049 O   0  0  0  0  0
    3.7137   -0.5514   -2.6165 O   0  0  0  0  0
   -3.6148    1.7135    1.0362 O   0  0  0  0  0
   -2.9167    2.0039   -1.3571 O   0  0  0  0  0
   -3.3196   -4.4643   -0.9705 O   0  0  0  0  0
   -0.8441    3.6345   -1.3266 F   0  0  0  0  0
   -2.7448    1.3587   -0.0696 S   0  0  0  0  0
  1  7  1  0  0  0
  2 10  1  0  0  0
  3 11  1  0  0  0
  4 12  1  0  0  0
  5  9  1  0  0  0
  6  8  1  0  0  0
  7 13  1  0  0  0
  9 16  1  0  0  0
 10 21  1  0  0  0
 11 22  1  0  0  0
 13 17  1  0  0  0
 14  8  1  0  0  0
 15 21  1  0  0  0
 23 12  1  0  0  0
 23 16  1  0  0  0
  1  3  2  0  0  0
  2  4  2  0  0  0
  5  7  2  0  0  0
  6 10  2  0  0  0
  8 12  2  0  0  0
  9 11  2  0  0  0
 13 18  2  0  0  0
 23 19  2  0  0  0
 23 20  2  0  0  0
M  CHG  1  17  -1
M  END
> <rmsd>
0.578539848

$$$$
ZINC24432836


 23 24  0  0  0  0  0  0  0  0999 V2000
    1.9445    1.6037   -2.4665 C   0  0  0  0  0
   -2.7620   -2.3057   -1.7791 C   0  0  0  0  0
   -3.4656   -2.5747    0.5163 C   0  0  0  0  0
    1.0398    2.6603   -2.3625 C   0  0  0  0  0
   -2.6287   -0.9321   -1.5774 C   0  0  0  0  0
   -3.3323   -1.2010    0.7181 C   0  0  0  0  0
    0.8311    0.4713   -0.6459 C   0  0  0  0  0
    1.8401    0.5092   -1.6082 C   0  0  0  0  0
   -0.0736    1.5279   -0.5419 C   0  0  0  0  0
   -3.1805   -3.1270   -0.7323 C   0  0  0  0  0
    0.0308    2.6224   -1.4002 C   0  0  0  0  0
   -2.9138   -0.3796   -0.3287 C   0  0  0  0  0
    2.7946   -0.6054   -1.7182 C   0  0  0  0  0
   -4.4363   -6.1941   -2.1480 C   0  0  0  0  0
   -3.6563   -4.9003   -2.2440 C   0  0  0  0  0
   -1.1051    1.4873    0.4445 N   0  0  0  0  0
    2.6769   -1.6042   -0.9135 O   0  0  0  0  0
    3.7170   -0.5456   -2.6152 O   0  0  0  0  0
   -3.6158    1.7129    1.0331 O   0  0  0  0  0
   -2.9104    2.0178   -1.3562 O   0  0  0  0  0
   -3.3103   -4.4674   -0.9292 O   0  0  0  0  0
   -0.8339    3.6429   -1.3090 F   0  0  0  0  0
   -2.7437    1.3634   -0.0727 S   0  0  0  0  0
  1  8  1  0  0  0
  2 10  1  0  0  0
  3  6  1  0  0  0
  4 11  1  0  0  0
  5 12  1  0  0  0
  7  9  1  0  0  0
  8 13  1  0  0  0
  9 16  1  0  0  0
 10 21  1  0  0  0
 11 22  1  0  0  0
 13 17  1  0  0  0
 14 15  1  0  0  0
 15 21  1  0  0  0
 23 12  1  0  0  0
 23 16  1  0  0  0
  1  4  2  0  0  0
  2  5  2  0  0  0
  3 10  2  0  0  0
  6 12  2  0  0  0
  7  8  2  0  0  0
  9 11  2  0  0  0
 13 18  2  0  0  0
 23 19  2  0  0  0
 23 20  2  0  0  0
M  CHG  1  17  -1
M  END
> <rmsd>
0.57713449

$$$$
ZINC00183371


 23 24  0  0  0  0  0  0  0  0999 V2000
    2.0436    1.2391   -2.1463 C   0  0  0  0  0
    1.1949    2.3459   -2.1562 C   0  0  0  0  0
   -3.7462   -2.5111    0.6633 C   0  0  0  0  0
   -2.8923   -2.3836   -1.5931 C   0  0  0  0  0
   -3.5559   -1.1375    0.8131 C   0  0  0  0  0
   -2.7020   -1.0099   -1.4434 C   0  0  0  0  0
    0.7537    0.2660   -0.3502 C   0  0  0  0  0
   -0.0950    1.3729   -0.3599 C   0  0  0  0  0
    1.8230    0.1990   -1.2433 C   0  0  0  0  0
   -3.4143   -3.1342   -0.5397 C   0  0  0  0  0
    0.1256    2.4128   -1.2630 C   0  0  0  0  0
   -3.0338   -0.3868   -0.2403 C   0  0  0  0  0
   -4.1383   -5.1810    0.4309 C   0  0  0  0  0
   -0.3365    4.5998   -0.4509 C   0  0  0  0  0
   -1.1858    1.4281    0.5626 N   0  0  0  0  0
    2.6866   -0.9280   -1.2338 N   0  0  0  0  0
    3.6424   -0.9686   -2.0459 O   0  0  0  0  0
    2.4709   -1.8525   -0.4133 O   0  0  0  0  0
   -3.7115    1.7973    0.9830 O   0  0  0  0  0
   -2.8502    1.9574   -1.3690 O   0  0  0  0  0
   -3.6004   -4.4745   -0.6858 O   0  0  0  0  0
   -0.6929    3.5023   -1.2886 O   0  0  0  0  0
   -2.7933    1.3564   -0.0504 S   0  0  0  0  0
  1  9  1  0  0  0
  2 11  1  0  0  0
  3 10  1  0  0  0
  4  6  1  0  0  0
  5 12  1  0  0  0
  7  8  1  0  0  0
  8 15  1  0  0  0
  9 16  1  0  0  0
 10 21  1  0  0  0
 11 22  1  0  0  0
 13 21  1  0  0  0
 14 22  1  0  0  0
 16 17  1  0  0  0
 23 12  1  0  0  0
 23 15  1  0  0  0
  1  2  2  0  0  0
  3  5  2  0  0  0
  4 10  2  0  0  0
  6 12  2  0  0  0
  7  9  2  0  0  0
  8 11  2  0  0  0
 16 18  2  0  0  0
 23 19  2  0  0  0
 23 20  2  0  0  0
M  CHG  2  16   1  17  -1
M  END
> <rmsd>
0.418797523

$$$$
ZINC91054416


 23 24  0  0  0  0  0  0  0  0999 V2000
    0.7227    2.4629   -2.7251 C   0  0  0  0  0
    1.5604    1.3645   -2.9173 C   0  0  0  0  0
   -3.7553   -2.1891   -1.7463 C   0  0  0  0  0
   -3.5260   -0.8293   -1.5367 C   0  0  0  0  0
   -3.2123   -2.6369    0.5649 C   0  0  0  0  0
   -0.1800    2.4742   -1.6617 C   0  0  0  0  0
   -2.9830   -1.2770    0.7744 C   0  0  0  0  0
    0.5929    0.2881   -0.9828 C   0  0  0  0  0
   -0.2449    1.3867   -0.7905 C   0  0  0  0  0
    1.4956    0.2769   -2.0462 C   0  0  0  0  0
   -3.5984   -3.0929   -0.6955 C   0  0  0  0  0
   -3.1398   -0.3733   -0.2764 C   0  0  0  0  0
   -1.0647    3.6644   -1.4809 C   0  0  0  0  0
   -2.5710   -0.8216    2.1362 C   0  0  0  0  0
    0.5208   -0.8776   -0.0448 C   0  0  0  0  0
   -1.1725    1.4013    0.3011 N   0  0  0  0  0
    2.3617   -0.8303   -2.2632 N   0  0  0  0  0
    3.4895   -0.8333   -1.7160 O   0  0  0  0  0
    1.9712   -1.7702   -2.9952 O   0  0  0  0  0
   -3.5913    1.7506    1.1418 O   0  0  0  0  0
   -3.1223    2.0219   -1.3089 O   0  0  0  0  0
   -3.8201   -4.3986   -0.8957 F   0  0  0  0  0
   -2.8569    1.3587   -0.0467 S   0  0  0  0  0
  1  6  1  0  0  0
  2 10  1  0  0  0
  3 11  1  0  0  0
  4 12  1  0  0  0
  5  7  1  0  0  0
  8  9  1  0  0  0
  9 16  1  0  0  0
 10 17  1  0  0  0
 11 22  1  0  0  0
 13  6  1  0  0  0
 14  7  1  0  0  0
 15  8  1  0  0  0
 17 18  1  0  0  0
 23 12  1  0  0  0
 23 16  1  0  0  0
  1  2  2  0  0  0
  3  4  2  0  0  0
  5 11  2  0  0  0
  6  9  2  0  0  0
  7 12  2  0  0  0
  8 10  2  0  0  0
 17 19  2  0  0  0
 23 20  2  0  0  0
 23 21  2  0  0  0
M  CHG  2  17   1  18  -1
M  END
> <rmsd>
0.40140754

$$$$
ZINC91054416


 23 24  0  0  0  0  0  0  0  0999 V2000
    0.7447    2.4920   -2.6986 C   0  0  0  0  0
    1.5788    1.3926   -2.9010 C   0  0  0  0  0
   -3.7361   -2.5124    0.6146 C   0  0  0  0  0
   -3.5020   -1.1481    0.7859 C   0  0  0  0  0
   -3.2507   -2.2998   -1.7425 C   0  0  0  0  0
   -0.1633    2.4931   -1.6397 C   0  0  0  0  0
   -3.0165   -0.9355   -1.5713 C   0  0  0  0  0
    0.5969    0.2950   -0.9858 C   0  0  0  0  0
   -0.2372    1.3946   -0.7833 C   0  0  0  0  0
    1.5049    0.2940   -2.0446 C   0  0  0  0  0
   -3.6105   -3.0883   -0.6496 C   0  0  0  0  0
   -3.1421   -0.3596   -0.3070 C   0  0  0  0  0
   -1.0439    3.6847   -1.4477 C   0  0  0  0  0
   -2.6325   -0.1195   -2.7622 C   0  0  0  0  0
    0.5151   -0.8826   -0.0636 C   0  0  0  0  0
   -1.1703    1.3988    0.3037 N   0  0  0  0  0
    2.3674   -0.8140   -2.2719 N   0  0  0  0  0
    3.4924   -0.8290   -1.7190 O   0  0  0  0  0
    1.9768   -1.7425   -3.0181 O   0  0  0  0  0
   -3.5919    1.7473    1.1367 O   0  0  0  0  0
   -3.1093    2.0488   -1.3078 O   0  0  0  0  0
   -3.8338   -4.3986   -0.8144 F   0  0  0  0  0
   -2.8531    1.3679   -0.0531 S   0  0  0  0  0
  1  6  1  0  0  0
  2 10  1  0  0  0
  3 11  1  0  0  0
  4 12  1  0  0  0
  5  7  1  0  0  0
  8  9  1  0  0  0
  9 16  1  0  0  0
 10 17  1  0  0  0
 11 22  1  0  0  0
 13  6  1  0  0  0
 14  7  1  0  0  0
 15  8  1  0  0  0
 17 18  1  0  0  0
 23 12  1  0  0  0
 23 16  1  0  0  0
  1  2  2  0  0  0
  3  4  2  0  0  0
  5 11  2  0  0  0
  6  9  2  0  0  0
  7 12  2  0  0  0
  8 10  2  0  0  0
 17 19  2  0  0  0
 23 20  2  0  0  0
 23 21  2  0  0  0
M  CHG  2  17   1  18  -1
M  END
> <rmsd>
0.393793464

$$$$
ZINC91054536


 23 24  0  0  0  0  0  0  0  0999 V2000
    0.7347    2.4784   -2.7108 C   0  0  0  0  0
    1.5700    1.3791   -2.9088 C   0  0  0  0  0
   -3.7241   -2.5341    0.5977 C   0  0  0  0  0
   -3.4987   -1.1708    0.7881 C   0  0  0  0  0
   -3.0104   -0.9227   -1.5649 C   0  0  0  0  0
   -0.1708    2.4844   -1.6498 C   0  0  0  0  0
   -3.2358   -2.2860   -1.7555 C   0  0  0  0  0
    0.5944    0.2913   -0.9847 C   0  0  0  0  0
   -0.2410    1.3908   -0.7867 C   0  0  0  0  0
    1.4999    0.2855   -2.0457 C   0  0  0  0  0
   -3.5926   -3.0917   -0.6741 C   0  0  0  0  0
   -3.1419   -0.3651   -0.2931 C   0  0  0  0  0
   -1.0529    3.6756   -1.4628 C   0  0  0  0  0
   -3.0940   -2.8784   -3.1168 C   0  0  0  0  0
    0.5166   -0.8809   -0.0554 C   0  0  0  0  0
   -1.1715    1.4000    0.3025 N   0  0  0  0  0
    2.3636   -0.8225   -2.2684 N   0  0  0  0  0
    3.4899   -0.8325   -1.7182 O   0  0  0  0  0
    1.9727   -1.7560   -3.0082 O   0  0  0  0  0
   -3.5916    1.7497    1.1392 O   0  0  0  0  0
   -3.1153    2.0374   -1.3082 O   0  0  0  0  0
   -3.8118   -4.4025   -0.8473 F   0  0  0  0  0
   -2.8550    1.3644   -0.0501 S   0  0  0  0  0
  1  6  1  0  0  0
  2 10  1  0  0  0
  3 11  1  0  0  0
  4 12  1  0  0  0
  5  7  1  0  0  0
  8  9  1  0  0  0
  9 16  1  0  0  0
 10 17  1  0  0  0
 11 22  1  0  0  0
 13  6  1  0  0  0
 14  7  1  0  0  0
 15  8  1  0  0  0
 17 18  1  0  0  0
 23 12  1  0  0  0
 23 16  1  0  0  0
  1  2  2  0  0  0
  3  4  2  0  0  0
  5 12  2  0  0  0
  6  9  2  0  0  0
  7 11  2  0  0  0
  8 10  2  0  0  0
 17 19  2  0  0  0
 23 20  2  0  0  0
 23 21  2  0  0  0
M  CHG  2  17   1  18  -1
M  END
> <rmsd>
0.399580091

$$$$
ZINC91054536


 23 24  0  0  0  0  0  0  0  0999 V2000
    0.7330    2.4775   -2.7121 C   0  0  0  0  0
    1.5686    1.3783   -2.9094 C   0  0  0  0  0
   -3.2379   -2.2852   -1.7552 C   0  0  0  0  0
   -3.0114   -0.9223   -1.5638 C   0  0  0  0  0
   -3.4996   -1.1717    0.7892 C   0  0  0  0  0
   -0.1722    2.4839   -1.6508 C   0  0  0  0  0
   -3.7261   -2.5347    0.5978 C   0  0  0  0  0
    0.5938    0.2916   -0.9844 C   0  0  0  0  0
   -0.2419    1.3909   -0.7870 C   0  0  0  0  0
    1.4991    0.2853   -2.0456 C   0  0  0  0  0
   -3.5953   -3.0914   -0.6744 C   0  0  0  0  0
   -3.1422   -0.3655   -0.2915 C   0  0  0  0  0
   -1.0546    3.6751   -1.4644 C   0  0  0  0  0
   -4.1082   -3.3934    1.7559 C   0  0  0  0  0
    0.5166   -0.8801   -0.0543 C   0  0  0  0  0
   -1.1721    1.4005    0.3024 N   0  0  0  0  0
    2.3630   -0.8226   -2.2678 N   0  0  0  0  0
    3.4895   -0.8318   -1.7178 O   0  0  0  0  0
    1.9722   -1.7567   -3.0068 O   0  0  0  0  0
   -3.5921    1.7501    1.1395 O   0  0  0  0  0
   -3.1165    2.0363   -1.3082 O   0  0  0  0  0
   -3.8103   -4.4001   -0.8684 F   0  0  0  0  0
   -2.8557    1.3642   -0.0497 S   0  0  0  0  0
  1  6  1  0  0  0
  2 10  1  0  0  0
  3 11  1  0  0  0
  4 12  1  0  0  0
  5  7  1  0  0  0
  8  9  1  0  0  0
  9 16  1  0  0  0
 10 17  1  0  0  0
 11 22  1  0  0  0
 13  6  1  0  0  0
 14  7  1  0  0  0
 15  8  1  0  0  0
 17 18  1  0  0  0
 23 12  1  0  0  0
 23 16  1  0  0  0
  1  2  2  0  0  0
  3  4  2  0  0  0
  5 12  2  0  0  0
  6  9  2  0  0  0
  7 11  2  0  0  0
  8 10  2  0  0  0
 17 19  2  0  0  0
 23 20  2  0  0  0
 23 21  2  0  0  0
M  CHG  2  17   1  18  -1
M  END
> <rmsd>
0.399307847

$$$$
ZINC91054445


 23 24  0  0  0  0  0  0  0  0999 V2000
   -3.7574   -2.1881   -1.7465 C   0  0  0  0  0
    0.7228    2.4635   -2.7251 C   0  0  0  0  0
    1.5606    1.3651   -2.9173 C   0  0  0  0  0
   -3.6006   -3.0923   -0.6961 C   0  0  0  0  0
   -3.5268   -0.8285   -1.5368 C   0  0  0  0  0
   -0.1799    2.4747   -1.6617 C   0  0  0  0  0
    0.5931    0.2886   -0.9828 C   0  0  0  0  0
   -2.9828   -1.2772    0.7740 C   0  0  0  0  0
   -0.2448    1.3871   -0.7905 C   0  0  0  0  0
    1.4958    0.2775   -2.0462 C   0  0  0  0  0
   -3.2133   -2.6369    0.5642 C   0  0  0  0  0
   -3.1396   -0.3730   -0.2765 C   0  0  0  0  0
   -1.0648    3.6648   -1.4809 C   0  0  0  0  0
    0.5210   -0.8771   -0.0448 C   0  0  0  0  0
   -2.5713   -0.8186    2.1349 C   0  0  0  0  0
   -1.1724    1.4016    0.3011 N   0  0  0  0  0
    2.3619   -0.8297   -2.2632 N   0  0  0  0  0
    3.4897   -0.8326   -1.7159 O   0  0  0  0  0
    1.9716   -1.7695   -2.9951 O   0  0  0  0  0
   -3.5912    1.7508    1.1417 O   0  0  0  0  0
   -3.1222    2.0222   -1.3090 O   0  0  0  0  0
   -3.0665   -3.5143    1.5670 F   0  0  0  0  0
   -2.8568    1.3589   -0.0468 S   0  0  0  0  0
  1  4  1  0  0  0
  2  6  1  0  0  0
  3 10  1  0  0  0
  5 12  1  0  0  0
  7  9  1  0  0  0
  8 11  1  0  0  0
  9 16  1  0  0  0
 10 17  1  0  0  0
 11 22  1  0  0  0
 13  6  1  0  0  0
 14  7  1  0  0  0
 15  8  1  0  0  0
 17 18  1  0  0  0
 23 12  1  0  0  0
 23 16  1  0  0  0
  1  5  2  0  0  0
  2  3  2  0  0  0
  4 11  2  0  0  0
  6  9  2  0  0  0
  7 10  2  0  0  0
  8 12  2  0  0  0
 17 19  2  0  0  0
 23 20  2  0  0  0
 23 21  2  0  0  0
M  CHG  2  17   1  18  -1
M  END
> <rmsd>
0.400687903

$$$$
ZINC91054445


 23 24  0  0  0  0  0  0  0  0999 V2000
   -3.7343   -2.5120    0.6151 C   0  0  0  0  0
    0.7450    2.4927   -2.6983 C   0  0  0  0  0
    1.5789    1.3932   -2.9009 C   0  0  0  0  0
   -3.6087   -3.0882   -0.6489 C   0  0  0  0  0
   -3.5010   -1.1474    0.7859 C   0  0  0  0  0
   -0.1631    2.4937   -1.6395 C   0  0  0  0  0
    0.5968    0.2954   -0.9859 C   0  0  0  0  0
   -3.0167   -0.9351   -1.5716 C   0  0  0  0  0
   -0.2372    1.3950   -0.7833 C   0  0  0  0  0
    1.5049    0.2945   -2.0447 C   0  0  0  0  0
   -3.2500   -2.2998   -1.7423 C   0  0  0  0  0
   -3.1423   -0.3590   -0.3074 C   0  0  0  0  0
   -1.0437    3.6853   -1.4474 C   0  0  0  0  0
    0.5149   -0.8824   -0.0639 C   0  0  0  0  0
   -2.6319   -0.1165   -2.7604 C   0  0  0  0  0
   -1.1703    1.3991    0.3037 N   0  0  0  0  0
    2.3674   -0.8136   -2.2721 N   0  0  0  0  0
    3.4923   -0.8287   -1.7191 O   0  0  0  0  0
    1.9767   -1.7419   -3.0184 O   0  0  0  0  0
   -3.5919    1.7477    1.1366 O   0  0  0  0  0
   -3.1091    2.0496   -1.3078 O   0  0  0  0  0
   -3.1314   -2.8638   -2.9525 F   0  0  0  0  0
   -2.8531    1.3685   -0.0532 S   0  0  0  0  0
  1  4  1  0  0  0
  2  6  1  0  0  0
  3 10  1  0  0  0
  5 12  1  0  0  0
  7  9  1  0  0  0
  8 11  1  0  0  0
  9 16  1  0  0  0
 10 17  1  0  0  0
 11 22  1  0  0  0
 13  6  1  0  0  0
 14  7  1  0  0  0
 15  8  1  0  0  0
 17 18  1  0  0  0
 23 12  1  0  0  0
 23 16  1  0  0  0
  1  5  2  0  0  0
  2  3  2  0  0  0
  4 11  2  0  0  0
  6  9  2  0  0  0
  7 10  2  0  0  0
  8 12  2  0  0  0
 17 19  2  0  0  0
 23 20  2  0  0  0
 23 21  2  0  0  0
M  CHG  2  17   1  18  -1
M  END
> <rmsd>
0.393993765

$$$$
ZINC91054689


 23 24  0  0  0  0  0  0  0  0999 V2000
    0.7232    2.4638   -2.7247 C   0  0  0  0  0
   -3.2119   -2.6362    0.5646 C   0  0  0  0  0
    1.5609    1.3653   -2.9171 C   0  0  0  0  0
   -3.5979   -3.0923   -0.6958 C   0  0  0  0  0
   -3.5255   -0.8286   -1.5371 C   0  0  0  0  0
   -0.1795    2.4750   -1.6614 C   0  0  0  0  0
   -2.9828   -1.2762    0.7742 C   0  0  0  0  0
    0.5932    0.2887   -0.9828 C   0  0  0  0  0
   -0.2445    1.3873   -0.7904 C   0  0  0  0  0
    1.4959    0.2777   -2.0461 C   0  0  0  0  0
   -3.7546   -2.1885   -1.7466 C   0  0  0  0  0
   -3.1396   -0.3725   -0.2767 C   0  0  0  0  0
   -1.0642    3.6653   -1.4804 C   0  0  0  0  0
   -2.5702   -0.8208    2.1357 C   0  0  0  0  0
    0.5210   -0.8771   -0.0450 C   0  0  0  0  0
   -1.1721    1.4018    0.3012 N   0  0  0  0  0
    2.3619   -0.8296   -2.2633 N   0  0  0  0  0
    3.4897   -0.8328   -1.7160 O   0  0  0  0  0
    1.9715   -1.7693   -2.9954 O   0  0  0  0  0
   -3.5909    1.7512    1.1418 O   0  0  0  0  0
   -3.1219    2.0228   -1.3088 O   0  0  0  0  0
   -4.1245   -2.6272   -2.9569 F   0  0  0  0  0
   -2.8565    1.3594   -0.0467 S   0  0  0  0  0
  1  3  1  0  0  0
  2  7  1  0  0  0
  4 11  1  0  0  0
  5 12  1  0  0  0
  6  9  1  0  0  0
  8 10  1  0  0  0
  9 16  1  0  0  0
 10 17  1  0  0  0
 11 22  1  0  0  0
 13  6  1  0  0  0
 14  7  1  0  0  0
 15  8  1  0  0  0
 17 18  1  0  0  0
 23 12  1  0  0  0
 23 16  1  0  0  0
  1  6  2  0  0  0
  2  4  2  0  0  0
  3 10  2  0  0  0
  5 11  2  0  0  0
  7 12  2  0  0  0
  8  9  2  0  0  0
 17 19  2  0  0  0
 23 20  2  0  0  0
 23 21  2  0  0  0
M  CHG  2  17   1  18  -1
M  END
> <rmsd>
0.401526004

$$$$
ZINC91054689


 23 24  0  0  0  0  0  0  0  0999 V2000
    0.7449    2.4923   -2.6989 C   0  0  0  0  0
   -3.2505   -2.2992   -1.7426 C   0  0  0  0  0
    1.5789    1.3929   -2.9013 C   0  0  0  0  0
   -3.6105   -3.0878   -0.6498 C   0  0  0  0  0
   -3.5017   -1.1477    0.7860 C   0  0  0  0  0
   -0.1631    2.4935   -1.6400 C   0  0  0  0  0
   -3.0161   -0.9348   -1.5711 C   0  0  0  0  0
    0.5972    0.2954   -0.9858 C   0  0  0  0  0
   -0.2370    1.3950   -0.7834 C   0  0  0  0  0
    1.5052    0.2944   -2.0448 C   0  0  0  0  0
   -3.7361   -2.5121    0.6145 C   0  0  0  0  0
   -3.1418   -0.3592   -0.3069 C   0  0  0  0  0
   -1.0438    3.6850   -1.4480 C   0  0  0  0  0
   -2.6328   -0.1187   -2.7621 C   0  0  0  0  0
    0.5154   -0.8821   -0.0636 C   0  0  0  0  0
   -1.1700    1.3993    0.3036 N   0  0  0  0  0
    2.3677   -0.8137   -2.2719 N   0  0  0  0  0
    3.4927   -0.8286   -1.7191 O   0  0  0  0  0
    1.9770   -1.7422   -3.0180 O   0  0  0  0  0
   -3.5915    1.7479    1.1367 O   0  0  0  0  0
   -3.1090    2.0492   -1.3078 O   0  0  0  0  0
   -4.0825   -3.2697    1.6634 F   0  0  0  0  0
   -2.8528    1.3684   -0.0531 S   0  0  0  0  0
  1  3  1  0  0  0
  2  7  1  0  0  0
  4 11  1  0  0  0
  5 12  1  0  0  0
  6  9  1  0  0  0
  8 10  1  0  0  0
  9 16  1  0  0  0
 10 17  1  0  0  0
 11 22  1  0  0  0
 13  6  1  0  0  0
 14  7  1  0  0  0
 15  8  1  0  0  0
 17 18  1  0  0  0
 23 12  1  0  0  0
 23 16  1  0  0  0
  1  6  2  0  0  0
  2  4  2  0  0  0
  3 10  2  0  0  0
  5 11  2  0  0  0
  7 12  2  0  0  0
  8  9  2  0  0  0
 17 19  2  0  0  0
 23 20  2  0  0  0
 23 21  2  0  0  0
M  CHG  2  17   1  18  -1
M  END
> <rmsd>
0.393682778

$$$$
ZINC00471698


 22 23  0  0  0  0  0  0  0  0999 V2000
    0.7314    2.4821   -2.6916 C   0  0  0  0  0
   -0.1724    2.4764   -1.6292 C   0  0  0  0  0
    1.5711    1.3877   -2.8989 C   0  0  0  0  0
   -3.7410   -2.5313    0.6087 C   0  0  0  0  0
   -3.2437   -2.2926   -1.7436 C   0  0  0  0  0
   -3.5102   -1.1685    0.7957 C   0  0  0  0  0
   -3.0130   -0.9297   -1.5565 C   0  0  0  0  0
    0.6033    0.2820   -0.9812 C   0  0  0  0  0
   -0.2364    1.3764   -0.7739 C   0  0  0  0  0
    1.5071    0.2877   -2.0436 C   0  0  0  0  0
   -3.6078   -3.0934   -0.6610 C   0  0  0  0  0
   -3.1463   -0.3677   -0.2868 C   0  0  0  0  0
    0.5300   -0.8966   -0.0596 C   0  0  0  0  0
   -2.6507   -5.5088    0.2124 C   0  0  0  0  0
   -1.1709    1.3921    0.3089 N   0  0  0  0  0
    2.3744   -0.8157   -2.2756 N   0  0  0  0  0
    3.5014   -0.8259   -1.7268 O   0  0  0  0  0
    1.9856   -1.7451   -3.0216 O   0  0  0  0  0
   -3.5952    1.7553    1.1336 O   0  0  0  0  0
   -3.1058    2.0299   -1.3128 O   0  0  0  0  0
   -3.9040   -4.8343   -0.8995 S   0  0  0  0  0
   -2.8542    1.3619   -0.0504 S   0  0  0  0  0
  1  2  1  0  0  0
  3 10  1  0  0  0
  4 11  1  0  0  0
  5  7  1  0  0  0
  6 12  1  0  0  0
  8  9  1  0  0  0
  9 15  1  0  0  0
 10 16  1  0  0  0
 11 21  1  0  0  0
 13  8  1  0  0  0
 14 21  1  0  0  0
 16 17  1  0  0  0
 22 12  1  0  0  0
 22 15  1  0  0  0
  1  3  2  0  0  0
  2  9  2  0  0  0
  4  6  2  0  0  0
  5 11  2  0  0  0
  7 12  2  0  0  0
  8 10  2  0  0  0
 16 18  2  0  0  0
 22 19  2  0  0  0
 22 20  2  0  0  0
M  CHG  2  16   1  17  -1
M  END
> <rmsd>
0.391636819

$$$$
ZINC47318137


 22 23  0  0  0  0  0  0  0  0999 V2000
   -2.4192   -2.2371   -1.8129 C   0  0  0  0  0
   -3.2401   -2.5881    0.4321 C   0  0  0  0  0
   -0.0406    2.7716   -1.2928 C   0  0  0  0  0
   -2.3827   -0.8617   -1.5845 C   0  0  0  0  0
   -3.2035   -1.2126    0.6605 C   0  0  0  0  0
    1.0176    2.8905   -2.1936 C   0  0  0  0  0
    0.9964    0.8117   -0.3332 C   0  0  0  0  0
    2.0547    0.9306   -1.2341 C   0  0  0  0  0
   -2.8479   -3.1004   -0.8046 C   0  0  0  0  0
   -0.0512    1.7322   -0.3626 C   0  0  0  0  0
   -2.7748   -0.3493   -0.3478 C   0  0  0  0  0
    2.0653    1.9700   -2.1643 C   0  0  0  0  0
    3.1443   -0.0624   -1.1726 C   0  0  0  0  0
   -4.2320   -5.0285   -1.6128 C   0  0  0  0  0
   -2.8892   -4.5709   -1.0491 C   0  0  0  0  0
   -1.1348    1.6108    0.5593 N   0  0  0  0  0
    3.0455   -1.1302   -1.8827 O   0  0  0  0  0
    4.1529    0.1759   -0.4110 O   0  0  0  0  0
   -3.6850    1.6714    0.9990 O   0  0  0  0  0
   -2.8598    2.0618   -1.3390 O   0  0  0  0  0
   -2.7290    1.3959   -0.0572 S   0  0  0  0  0
    3.3563    2.1531   -3.2964 Cl  0  0  0  0  0
  1  9  1  0  0  0
  2  5  1  0  0  0
  3 10  1  0  0  0
  4 11  1  0  0  0
  6 12  1  0  0  0
  7  8  1  0  0  0
  8 13  1  0  0  0
 10 16  1  0  0  0
 12 22  1  0  0  0
 13 17  1  0  0  0
 14 15  1  0  0  0
 15  9  1  0  0  0
 21 11  1  0  0  0
 21 16  1  0  0  0
  1  4  2  0  0  0
  2  9  2  0  0  0
  3  6  2  0  0  0
  5 11  2  0  0  0
  7 10  2  0  0  0
  8 12  2  0  0  0
 13 18  2  0  0  0
 21 19  2  0  0  0
 21 20  2  0  0  0
M  CHG  1  17  -1
M  END
> <rmsd>
0.710048378

$$$$
ZINC47318137


 22 23  0  0  0  0  0  0  0  0999 V2000
   -2.9057   -2.3061   -1.7796 C   0  0  0  0  0
   -3.5361   -2.5659    0.5382 C   0  0  0  0  0
   -0.1092    2.5057   -1.5768 C   0  0  0  0  0
   -2.7417   -0.9353   -1.5814 C   0  0  0  0  0
   -3.3720   -1.1951    0.7365 C   0  0  0  0  0
    0.8654    2.5308   -2.5743 C   0  0  0  0  0
    0.8592    0.4814   -0.6814 C   0  0  0  0  0
    1.8339    0.5065   -1.6789 C   0  0  0  0  0
   -3.3029   -3.1215   -0.7199 C   0  0  0  0  0
   -0.1123    1.4810   -0.6304 C   0  0  0  0  0
   -2.9749   -0.3796   -0.3233 C   0  0  0  0  0
    1.8370    1.5312   -2.6254 C   0  0  0  0  0
    2.8446   -0.5683   -1.7005 C   0  0  0  0  0
   -4.9016   -4.9439   -1.3595 C   0  0  0  0  0
   -3.4804   -4.5869   -0.9319 C   0  0  0  0  0
   -1.1103    1.4557    0.3904 N   0  0  0  0  0
    2.5971   -1.6331   -2.3782 O   0  0  0  0  0
    3.9358   -0.4014   -1.0407 O   0  0  0  0  0
   -3.5954    1.7216    1.0643 O   0  0  0  0  0
   -2.9666    2.0192   -1.3472 O   0  0  0  0  0
   -2.7673    1.3598   -0.0710 S   0  0  0  0  0
    3.0259    1.5994   -3.8759 Cl  0  0  0  0  0
  1  9  1  0  0  0
  2  5  1  0  0  0
  3 10  1  0  0  0
  4 11  1  0  0  0
  6 12  1  0  0  0
  7  8  1  0  0  0
  8 13  1  0  0  0
 10 16  1  0  0  0
 12 22  1  0  0  0
 13 17  1  0  0  0
 14 15  1  0  0  0
 15  9  1  0  0  0
 21 11  1  0  0  0
 21 16  1  0  0  0
  1  4  2  0  0  0
  2  9  2  0  0  0
  3  6  2  0  0  0
  5 11  2  0  0  0
  7 10  2  0  0  0
  8 12  2  0  0  0
 13 18  2  0  0  0
 21 19  2  0  0  0
 21 20  2  0  0  0
M  CHG  1  17  -1
M  END
> <rmsd>
0.529034734

$$$$
ZINC65844610


 22 23  0  0  0  0  0  0  0  0999 V2000
    1.0284    2.6335   -2.3585 C   0  0  0  0  0
    1.9401    1.5828   -2.4622 C   0  0  0  0  0
   -2.9780   -2.6470    0.5560 C   0  0  0  0  0
    0.0237    2.5922   -1.3919 C   0  0  0  0  0
   -3.2069   -3.1327   -0.7314 C   0  0  0  0  0
   -3.1480   -0.8763   -1.5930 C   0  0  0  0  0
    1.8470    0.4911   -1.5991 C   0  0  0  0  0
   -2.8342   -1.2760    0.7689 C   0  0  0  0  0
    0.8423    0.4498   -0.6324 C   0  0  0  0  0
   -0.0694    1.5004   -0.5288 C   0  0  0  0  0
   -2.9191   -0.3907   -0.3056 C   0  0  0  0  0
   -3.2919   -2.2473   -1.8059 C   0  0  0  0  0
    2.8215   -0.6076   -1.7303 C   0  0  0  0  0
   -2.5898   -0.7891    2.1598 C   0  0  0  0  0
    0.7429   -0.7222    0.2936 C   0  0  0  0  0
   -1.1076    1.4787    0.4544 N   0  0  0  0  0
    3.9135   -0.5482   -1.0524 O   0  0  0  0  0
    2.5456   -1.5866   -2.5183 O   0  0  0  0  0
   -3.6185    1.7219    1.0262 O   0  0  0  0  0
   -2.8999    1.9935   -1.3632 O   0  0  0  0  0
   -2.7425    1.3546   -0.0708 S   0  0  0  0  0
   -3.5735   -2.8470   -3.3945 Cl  0  0  0  0  0
  1  2  1  0  0  0
  3  8  1  0  0  0
  4 10  1  0  0  0
  5 12  1  0  0  0
  6 11  1  0  0  0
  7  9  1  0  0  0
  7 13  1  0  0  0
 10 16  1  0  0  0
 12 22  1  0  0  0
 13 17  1  0  0  0
 14  8  1  0  0  0
 15  9  1  0  0  0
 21 11  1  0  0  0
 21 16  1  0  0  0
  1  4  2  0  0  0
  2  7  2  0  0  0
  3  5  2  0  0  0
  6 12  2  0  0  0
  8 11  2  0  0  0
  9 10  2  0  0  0
 13 18  2  0  0  0
 21 19  2  0  0  0
 21 20  2  0  0  0
M  CHG  1  17  -1
M  END
> <rmsd>
0.561770201

$$$$
ZINC65844610


 22 23  0  0  0  0  0  0  0  0999 V2000
    0.7000    2.4875   -2.7086 C   0  0  0  0  0
    1.5434    1.3960   -2.9164 C   0  0  0  0  0
   -3.2284   -2.6327    0.5749 C   0  0  0  0  0
   -0.1977    2.4818   -1.6410 C   0  0  0  0  0
   -3.6155   -3.0906   -0.6845 C   0  0  0  0  0
   -3.5381   -0.8287   -1.5304 C   0  0  0  0  0
    1.4889    0.2990   -2.0566 C   0  0  0  0  0
   -2.9962   -1.2729    0.7818 C   0  0  0  0  0
    0.5912    0.2934   -0.9890 C   0  0  0  0  0
   -0.2522    1.3849   -0.7812 C   0  0  0  0  0
   -3.1511   -0.3709   -0.2709 C   0  0  0  0  0
   -3.7704   -2.1886   -1.7372 C   0  0  0  0  0
    2.3894   -0.8431   -2.2989 C   0  0  0  0  0
   -2.5827   -0.8159    2.1425 C   0  0  0  0  0
    0.5332   -0.8842   -0.0666 C   0  0  0  0  0
   -1.1804    1.4002    0.3065 N   0  0  0  0  0
    3.5485   -0.8444   -1.7404 O   0  0  0  0  0
    1.9843   -1.7977   -3.0605 O   0  0  0  0  0
   -3.6019    1.7555    1.1436 O   0  0  0  0  0
   -3.1276    2.0228   -1.3065 O   0  0  0  0  0
   -2.8658    1.3608   -0.0430 S   0  0  0  0  0
   -4.2472   -2.7539   -3.2913 Cl  0  0  0  0  0
  1  2  1  0  0  0
  3  8  1  0  0  0
  4 10  1  0  0  0
  5 12  1  0  0  0
  6 11  1  0  0  0
  7  9  1  0  0  0
  7 13  1  0  0  0
 10 16  1  0  0  0
 12 22  1  0  0  0
 13 17  1  0  0  0
 14  8  1  0  0  0
 15  9  1  0  0  0
 21 11  1  0  0  0
 21 16  1  0  0  0
  1  4  2  0  0  0
  2  7  2  0  0  0
  3  5  2  0  0  0
  6 12  2  0  0  0
  8 11  2  0  0  0
  9 10  2  0  0  0
 13 18  2  0  0  0
 21 19  2  0  0  0
 21 20  2  0  0  0
M  CHG  1  17  -1
M  END
> <rmsd>
0.388858557

$$$$
ZINC65844618


 22 23  0  0  0  0  0  0  0  0999 V2000
    0.6995    2.4871   -2.7087 C   0  0  0  0  0
    1.5428    1.3956   -2.9164 C   0  0  0  0  0
   -0.1981    2.4817   -1.6411 C   0  0  0  0  0
   -3.5372   -0.8280   -1.5302 C   0  0  0  0  0
   -3.7683   -2.1877   -1.7381 C   0  0  0  0  0
   -3.2278   -2.6332    0.5741 C   0  0  0  0  0
    1.4884    0.2988   -2.0564 C   0  0  0  0  0
   -2.9966   -1.2734    0.7820 C   0  0  0  0  0
    0.5908    0.2934   -0.9887 C   0  0  0  0  0
   -0.2525    1.3849   -0.7810 C   0  0  0  0  0
   -3.1513   -0.3708   -0.2701 C   0  0  0  0  0
   -3.6137   -3.0903   -0.6860 C   0  0  0  0  0
    2.3889   -0.8434   -2.2985 C   0  0  0  0  0
   -2.5850   -0.8165    2.1433 C   0  0  0  0  0
    0.5330   -0.8840   -0.0660 C   0  0  0  0  0
   -1.1806    1.4005    0.3067 N   0  0  0  0  0
    3.5481   -0.8445   -1.7401 O   0  0  0  0  0
    1.9837   -1.7981   -3.0598 O   0  0  0  0  0
   -3.6021    1.7559    1.1440 O   0  0  0  0  0
   -3.1280    2.0228   -1.3062 O   0  0  0  0  0
   -2.8660    1.3611   -0.0425 S   0  0  0  0  0
   -3.8974   -4.7685   -0.9435 Cl  0  0  0  0  0
  1  2  1  0  0  0
  3 10  1  0  0  0
  4 11  1  0  0  0
  5 12  1  0  0  0
  6  8  1  0  0  0
  7  9  1  0  0  0
  7 13  1  0  0  0
 10 16  1  0  0  0
 12 22  1  0  0  0
 13 17  1  0  0  0
 14  8  1  0  0  0
 15  9  1  0  0  0
 21 11  1  0  0  0
 21 16  1  0  0  0
  1  3  2  0  0  0
  2  7  2  0  0  0
  4  5  2  0  0  0
  6 12  2  0  0  0
  8 11  2  0  0  0
  9 10  2  0  0  0
 13 18  2  0  0  0
 21 19  2  0  0  0
 21 20  2  0  0  0
M  CHG  1  17  -1
M  END
> <rmsd>
0.389403701

$$$$
ZINC65844618


 22 23  0  0  0  0  0  0  0  0999 V2000
    1.0279    2.6333   -2.3587 C   0  0  0  0  0
    1.9396    1.5826   -2.4622 C   0  0  0  0  0
    0.0233    2.5922   -1.3919 C   0  0  0  0  0
   -3.1471   -0.8755   -1.5928 C   0  0  0  0  0
   -3.2897   -2.2463   -1.8068 C   0  0  0  0  0
   -2.9772   -2.6475    0.5551 C   0  0  0  0  0
    1.8465    0.4909   -1.5989 C   0  0  0  0  0
   -2.8346   -1.2765    0.7691 C   0  0  0  0  0
    0.8419    0.4498   -0.6322 C   0  0  0  0  0
   -0.0698    1.5005   -0.5287 C   0  0  0  0  0
   -2.9195   -0.3905   -0.3048 C   0  0  0  0  0
   -3.2049   -3.1324   -0.7328 C   0  0  0  0  0
    2.8211   -0.6078   -1.7301 C   0  0  0  0  0
   -2.5921   -0.7899    2.1603 C   0  0  0  0  0
    0.7426   -0.7220    0.2940 C   0  0  0  0  0
   -1.1078    1.4790    0.4546 N   0  0  0  0  0
    3.9131   -0.5483   -1.0523 O   0  0  0  0  0
    2.5450   -1.5869   -2.5178 O   0  0  0  0  0
   -3.6187    1.7223    1.0267 O   0  0  0  0  0
   -2.9003    1.9935   -1.3628 O   0  0  0  0  0
   -2.7428    1.3549   -0.0703 S   0  0  0  0  0
   -3.3794   -4.8243   -0.9977 Cl  0  0  0  0  0
  1  2  1  0  0  0
  3 10  1  0  0  0
  4 11  1  0  0  0
  5 12  1  0  0  0
  6  8  1  0  0  0
  7  9  1  0  0  0
  7 13  1  0  0  0
 10 16  1  0  0  0
 12 22  1  0  0  0
 13 17  1  0  0  0
 14  8  1  0  0  0
 15  9  1  0  0  0
 21 11  1  0  0  0
 21 16  1  0  0  0
  1  3  2  0  0  0
  2  7  2  0  0  0
  4  5  2  0  0  0
  6 12  2  0  0  0
  8 11  2  0  0  0
  9 10  2  0  0  0
 13 18  2  0  0  0
 21 19  2  0  0  0
 21 20  2  0  0  0
M  CHG  1  17  -1
M  END
> <rmsd>
0.562499762

$$$$
ZINC65844537


 22 23  0  0  0  0  0  0  0  0999 V2000
    1.0203    2.6257   -2.3691 C   0  0  0  0  0
    1.9333    1.5758   -2.4697 C   0  0  0  0  0
   -3.1818   -2.2449   -1.8261 C   0  0  0  0  0
    0.0175    2.5874   -1.4004 C   0  0  0  0  0
   -3.0417   -0.8759   -1.5984 C   0  0  0  0  0
   -3.0768   -2.6514    0.5532 C   0  0  0  0  0
    1.8433    0.4878   -1.6015 C   0  0  0  0  0
   -3.1994   -3.1327   -0.7503 C   0  0  0  0  0
    0.8405    0.4495   -0.6328 C   0  0  0  0  0
   -0.0725    1.4994   -0.5322 C   0  0  0  0  0
   -2.9191   -0.3946   -0.2949 C   0  0  0  0  0
   -2.9366   -1.2824    0.7809 C   0  0  0  0  0
    2.8191   -0.6101   -1.7296 C   0  0  0  0  0
   -3.3493   -4.5961   -0.9943 C   0  0  0  0  0
    0.7445   -0.7184    0.2987 C   0  0  0  0  0
   -1.1087    1.4807    0.4531 N   0  0  0  0  0
    3.9123   -0.5460   -1.0541 O   0  0  0  0  0
    2.5430   -1.5930   -2.5126 O   0  0  0  0  0
   -3.6189    1.7230    1.0286 O   0  0  0  0  0
   -2.9053    1.9847   -1.3634 O   0  0  0  0  0
   -2.7445    1.3520   -0.0684 S   0  0  0  0  0
   -2.7863   -0.7375    2.4127 Cl  0  0  0  0  0
  1  2  1  0  0  0
  3  8  1  0  0  0
  4 10  1  0  0  0
  5 11  1  0  0  0
  6 12  1  0  0  0
  7  9  1  0  0  0
  7 13  1  0  0  0
 10 16  1  0  0  0
 12 22  1  0  0  0
 13 17  1  0  0  0
 14  8  1  0  0  0
 15  9  1  0  0  0
 21 11  1  0  0  0
 21 16  1  0  0  0
  1  4  2  0  0  0
  2  7  2  0  0  0
  3  5  2  0  0  0
  6  8  2  0  0  0
  9 10  2  0  0  0
 11 12  2  0  0  0
 13 18  2  0  0  0
 21 19  2  0  0  0
 21 20  2  0  0  0
M  CHG  1  17  -1
M  END
> <rmsd>
0.565523326

$$$$
ZINC65844537


 22 23  0  0  0  0  0  0  0  0999 V2000
    0.6917    2.4773   -2.7181 C   0  0  0  0  0
    1.5364    1.3861   -2.9222 C   0  0  0  0  0
   -3.6636   -2.1921   -1.7676 C   0  0  0  0  0
   -0.2040    2.4754   -1.6488 C   0  0  0  0  0
   -3.4333   -0.8342   -1.5463 C   0  0  0  0  0
   -3.3284   -2.6322    0.5843 C   0  0  0  0  0
    1.4852    0.2931   -2.0571 C   0  0  0  0  0
   -3.6113   -3.0910   -0.7023 C   0  0  0  0  0
    0.5894    0.2912   -0.9879 C   0  0  0  0  0
   -0.2552    1.3824   -0.7837 C   0  0  0  0  0
   -3.1505   -0.3754   -0.2597 C   0  0  0  0  0
   -3.0980   -1.2744    0.8056 C   0  0  0  0  0
    2.3870   -0.8488   -2.2956 C   0  0  0  0  0
   -3.8577   -4.5425   -0.9393 C   0  0  0  0  0
    0.5350   -0.8820   -0.0598 C   0  0  0  0  0
   -1.1815    1.4015    0.3056 N   0  0  0  0  0
    3.5471   -0.8456   -1.7392 O   0  0  0  0  0
    1.9820   -1.8076   -3.0519 O   0  0  0  0  0
   -3.6020    1.7571    1.1454 O   0  0  0  0  0
   -3.1326    2.0134   -1.3067 O   0  0  0  0  0
   -2.8674    1.3579   -0.0406 S   0  0  0  0  0
   -2.7499   -0.7573    2.4161 Cl  0  0  0  0  0
  1  2  1  0  0  0
  3  8  1  0  0  0
  4 10  1  0  0  0
  5 11  1  0  0  0
  6 12  1  0  0  0
  7  9  1  0  0  0
  7 13  1  0  0  0
 10 16  1  0  0  0
 12 22  1  0  0  0
 13 17  1  0  0  0
 14  8  1  0  0  0
 15  9  1  0  0  0
 21 11  1  0  0  0
 21 16  1  0  0  0
  1  4  2  0  0  0
  2  7  2  0  0  0
  3  5  2  0  0  0
  6  8  2  0  0  0
  9 10  2  0  0  0
 11 12  2  0  0  0
 13 18  2  0  0  0
 21 19  2  0  0  0
 21 20  2  0  0  0
M  CHG  1  17  -1
M  END
> <rmsd>
0.391700745

$$$$
ZINC65844610


 22 23  0  0  0  0  0  0  0  0999 V2000
    0.7213    2.5157   -2.6824 C   0  0  0  0  0
    1.5609    1.4233   -2.9001 C   0  0  0  0  0
   -3.2627   -2.2984   -1.7347 C   0  0  0  0  0
   -0.1817    2.5002   -1.6193 C   0  0  0  0  0
   -3.6231   -3.0859   -0.6413 C   0  0  0  0  0
   -3.5144   -1.1446    0.7928 C   0  0  0  0  0
    1.4975    0.3156   -2.0548 C   0  0  0  0  0
   -3.0281   -0.9339   -1.5643 C   0  0  0  0  0
    0.5946    0.3001   -0.9918 C   0  0  0  0  0
   -0.2451    1.3925   -0.7740 C   0  0  0  0  0
   -3.1540   -0.3570   -0.3005 C   0  0  0  0  0
   -3.7490   -2.5090    0.6225 C   0  0  0  0  0
    2.3943   -0.8272   -2.3075 C   0  0  0  0  0
   -2.6439   -0.1190   -2.7560 C   0  0  0  0  0
    0.5270   -0.8890   -0.0849 C   0  0  0  0  0
   -1.1786    1.3979    0.3092 N   0  0  0  0  0
    3.5506   -0.8408   -1.7434 O   0  0  0  0  0
    1.9888   -1.7702   -3.0833 O   0  0  0  0  0
   -3.6027    1.7529    1.1391 O   0  0  0  0  0
   -3.1152    2.0497   -1.3050 O   0  0  0  0  0
   -2.8624    1.3704   -0.0489 S   0  0  0  0  0
   -4.1946   -3.4810    1.9712 Cl  0  0  0  0  0
  1  2  1  0  0  0
  3  8  1  0  0  0
  4 10  1  0  0  0
  5 12  1  0  0  0
  6 11  1  0  0  0
  7  9  1  0  0  0
  7 13  1  0  0  0
 10 16  1  0  0  0
 12 22  1  0  0  0
 13 17  1  0  0  0
 14  8  1  0  0  0
 15  9  1  0  0  0
 21 11  1  0  0  0
 21 16  1  0  0  0
  1  4  2  0  0  0
  2  7  2  0  0  0
  3  5  2  0  0  0
  6 12  2  0  0  0
  8 11  2  0  0  0
  9 10  2  0  0  0
 13 18  2  0  0  0
 21 19  2  0  0  0
 21 20  2  0  0  0
M  CHG  1  17  -1
M  END
> <rmsd>
0.382523626

$$$$
ZINC65844610


 22 23  0  0  0  0  0  0  0  0999 V2000
    1.0494    2.6553   -2.3292 C   0  0  0  0  0
    1.9575    1.6024   -2.4412 C   0  0  0  0  0
   -2.7848   -2.3350   -1.7447 C   0  0  0  0  0
    0.0395    2.6061   -1.3683 C   0  0  0  0  0
   -3.2231   -3.1292   -0.6851 C   0  0  0  0  0
   -3.3590   -1.1724    0.7254 C   0  0  0  0  0
    1.8556    0.5004   -1.5922 C   0  0  0  0  0
   -2.6335   -0.9594   -1.5692 C   0  0  0  0  0
    0.8457    0.4512   -0.6313 C   0  0  0  0  0
   -0.0624    1.5041   -0.5193 C   0  0  0  0  0
   -2.9206   -0.3781   -0.3341 C   0  0  0  0  0
   -3.5102   -2.5479    0.5500 C   0  0  0  0  0
    2.8264   -0.6005   -1.7321 C   0  0  0  0  0
   -2.1623   -0.1376   -2.7243 C   0  0  0  0  0
    0.7369   -0.7318    0.2796 C   0  0  0  0  0
   -1.1056    1.4744    0.4582 N   0  0  0  0  0
    3.9151   -0.5538   -1.0479 O   0  0  0  0  0
    2.5506   -1.5685   -2.5335 O   0  0  0  0  0
   -3.6185    1.7206    1.0202 O   0  0  0  0  0
   -2.8866    2.0188   -1.3620 O   0  0  0  0  0
   -2.7384    1.3634   -0.0768 S   0  0  0  0  0
   -4.0519   -3.5282    1.8569 Cl  0  0  0  0  0
  1  2  1  0  0  0
  3  8  1  0  0  0
  4 10  1  0  0  0
  5 12  1  0  0  0
  6 11  1  0  0  0
  7  9  1  0  0  0
  7 13  1  0  0  0
 10 16  1  0  0  0
 12 22  1  0  0  0
 13 17  1  0  0  0
 14  8  1  0  0  0
 15  9  1  0  0  0
 21 11  1  0  0  0
 21 16  1  0  0  0
  1  4  2  0  0  0
  2  7  2  0  0  0
  3  5  2  0  0  0
  6 12  2  0  0  0
  8 11  2  0  0  0
  9 10  2  0  0  0
 13 18  2  0  0  0
 21 19  2  0  0  0
 21 20  2  0  0  0
M  CHG  1  17  -1
M  END
> <rmsd>
0.553452134

$$$$
ZINC65844618


 22 23  0  0  0  0  0  0  0  0999 V2000
    1.0492    2.6559   -2.3298 C   0  0  0  0  0
    1.9575    1.6031   -2.4416 C   0  0  0  0  0
    0.0394    2.6066   -1.3688 C   0  0  0  0  0
   -3.3598   -1.1711    0.7256 C   0  0  0  0  0
   -3.5127   -2.5464    0.5509 C   0  0  0  0  0
   -2.7861   -2.3358   -1.7436 C   0  0  0  0  0
    1.8558    0.5012   -1.5926 C   0  0  0  0  0
   -2.6333   -0.9603   -1.5690 C   0  0  0  0  0
    0.8459    0.4519   -0.6316 C   0  0  0  0  0
   -0.0623    1.5047   -0.5198 C   0  0  0  0  0
   -2.9203   -0.3780   -0.3344 C   0  0  0  0  0
   -3.2257   -3.1289   -0.6837 C   0  0  0  0  0
    2.8268   -0.5996   -1.7323 C   0  0  0  0  0
   -2.1604   -0.1397   -2.7237 C   0  0  0  0  0
    0.7373   -0.7310    0.2794 C   0  0  0  0  0
   -1.1056    1.4749    0.4578 N   0  0  0  0  0
    3.9155   -0.5527   -1.0481 O   0  0  0  0  0
    2.5512   -1.5677   -2.5336 O   0  0  0  0  0
   -3.6185    1.7207    1.0197 O   0  0  0  0  0
   -2.8866    2.0189   -1.3625 O   0  0  0  0  0
   -2.7383    1.3636   -0.0772 S   0  0  0  0  0
   -3.4160   -4.8261   -0.8991 Cl  0  0  0  0  0
  1  2  1  0  0  0
  3 10  1  0  0  0
  4 11  1  0  0  0
  5 12  1  0  0  0
  6  8  1  0  0  0
  7  9  1  0  0  0
  7 13  1  0  0  0
 10 16  1  0  0  0
 12 22  1  0  0  0
 13 17  1  0  0  0
 14  8  1  0  0  0
 15  9  1  0  0  0
 21 11  1  0  0  0
 21 16  1  0  0  0
  1  3  2  0  0  0
  2  7  2  0  0  0
  4  5  2  0  0  0
  6 12  2  0  0  0
  8 11  2  0  0  0
  9 10  2  0  0  0
 13 18  2  0  0  0
 21 19  2  0  0  0
 21 20  2  0  0  0
M  CHG  1  17  -1
M  END
> <rmsd>
0.552608788

$$$$
ZINC65844618


 22 23  0  0  0  0  0  0  0  0999 V2000
    0.7212    2.5163   -2.6828 C   0  0  0  0  0
    1.5611    1.4240   -2.9005 C   0  0  0  0  0
   -0.1817    2.5007   -1.6198 C   0  0  0  0  0
   -3.5153   -1.1433    0.7930 C   0  0  0  0  0
   -3.7514   -2.5075    0.6235 C   0  0  0  0  0
   -3.2640   -2.2991   -1.7335 C   0  0  0  0  0
    1.4978    0.3163   -2.0551 C   0  0  0  0  0
   -3.0279   -0.9348   -1.5642 C   0  0  0  0  0
    0.5948    0.3008   -0.9921 C   0  0  0  0  0
   -0.2450    1.3931   -0.7744 C   0  0  0  0  0
   -3.1537   -0.3569   -0.3009 C   0  0  0  0  0
   -3.6257   -3.0855   -0.6398 C   0  0  0  0  0
    2.3947   -0.8264   -2.3076 C   0  0  0  0  0
   -2.6419   -0.1211   -2.7556 C   0  0  0  0  0
    0.5274   -0.8883   -0.0852 C   0  0  0  0  0
   -1.1785    1.3983    0.3088 N   0  0  0  0  0
    3.5510   -0.8397   -1.7436 O   0  0  0  0  0
    1.9894   -1.7694   -3.0834 O   0  0  0  0  0
   -3.6027    1.7531    1.1386 O   0  0  0  0  0
   -3.1152    2.0498   -1.3055 O   0  0  0  0  0
   -2.8623    1.3706   -0.0493 S   0  0  0  0  0
   -3.9187   -4.7688   -0.8485 Cl  0  0  0  0  0
  1  2  1  0  0  0
  3 10  1  0  0  0
  4 11  1  0  0  0
  5 12  1  0  0  0
  6  8  1  0  0  0
  7  9  1  0  0  0
  7 13  1  0  0  0
 10 16  1  0  0  0
 12 22  1  0  0  0
 13 17  1  0  0  0
 14  8  1  0  0  0
 15  9  1  0  0  0
 21 11  1  0  0  0
 21 16  1  0  0  0
  1  3  2  0  0  0
  2  7  2  0  0  0
  4  5  2  0  0  0
  6 12  2  0  0  0
  8 11  2  0  0  0
  9 10  2  0  0  0
 13 18  2  0  0  0
 21 19  2  0  0  0
 21 20  2  0  0  0
M  CHG  1  17  -1
M  END
> <rmsd>
0.381835014

$$$$
ZINC65844537


 22 23  0  0  0  0  0  0  0  0999 V2000
    0.7291    2.5256   -2.6735 C   0  0  0  0  0
    1.5679    1.4332   -2.8945 C   0  0  0  0  0
   -3.7578   -2.4926    0.6345 C   0  0  0  0  0
   -0.1758    2.5066   -1.6121 C   0  0  0  0  0
   -3.5169   -1.1277    0.7907 C   0  0  0  0  0
   -3.2720   -2.3085   -1.7249 C   0  0  0  0  0
    1.5017    0.3219   -2.0542 C   0  0  0  0  0
   -3.6352   -3.0831   -0.6233 C   0  0  0  0  0
    0.5969    0.3029   -0.9928 C   0  0  0  0  0
   -0.2419    1.3953   -0.7717 C   0  0  0  0  0
   -3.1536   -0.3530   -0.3109 C   0  0  0  0  0
   -3.0311   -0.9434   -1.5687 C   0  0  0  0  0
    2.3976   -0.8208   -2.3102 C   0  0  0  0  0
   -3.8927   -4.5425   -0.7897 C   0  0  0  0  0
    0.5264   -0.8901   -0.0912 C   0  0  0  0  0
   -1.1773    1.3970    0.3099 N   0  0  0  0  0
    3.5529   -0.8381   -1.7442 O   0  0  0  0  0
    1.9925   -1.7599   -3.0908 O   0  0  0  0  0
   -3.6024    1.7512    1.1371 O   0  0  0  0  0
   -3.1103    2.0580   -1.3048 O   0  0  0  0  0
   -2.8605    1.3730   -0.0512 S   0  0  0  0  0
   -2.5863   -0.0282   -2.9640 Cl  0  0  0  0  0
  1  2  1  0  0  0
  3  8  1  0  0  0
  4 10  1  0  0  0
  5 11  1  0  0  0
  6 12  1  0  0  0
  7  9  1  0  0  0
  7 13  1  0  0  0
 10 16  1  0  0  0
 12 22  1  0  0  0
 13 17  1  0  0  0
 14  8  1  0  0  0
 15  9  1  0  0  0
 21 11  1  0  0  0
 21 16  1  0  0  0
  1  4  2  0  0  0
  2  7  2  0  0  0
  3  5  2  0  0  0
  6  8  2  0  0  0
  9 10  2  0  0  0
 11 12  2  0  0  0
 13 18  2  0  0  0
 21 19  2  0  0  0
 21 20  2  0  0  0
M  CHG  1  17  -1
M  END
> <rmsd>
0.378346533

$$$$
ZINC65844537


 22 23  0  0  0  0  0  0  0  0999 V2000
    1.0567    2.6631   -2.3196 C   0  0  0  0  0
    1.9640    1.6097   -2.4342 C   0  0  0  0  0
   -3.5222   -2.5316    0.5624 C   0  0  0  0  0
    0.0452    2.6109   -1.3607 C   0  0  0  0  0
   -3.3628   -1.1554    0.7238 C   0  0  0  0  0
   -2.7952   -2.3465   -1.7342 C   0  0  0  0  0
    1.8595    0.5044   -1.5899 C   0  0  0  0  0
   -3.2383   -3.1272   -0.6667 C   0  0  0  0  0
    0.8480    0.4523   -0.6309 C   0  0  0  0  0
   -0.0593    1.5056   -0.5163 C   0  0  0  0  0
   -2.9197   -0.3746   -0.3438 C   0  0  0  0  0
   -2.6359   -0.9702   -1.5728 C   0  0  0  0  0
    2.8296   -0.5969   -1.7324 C   0  0  0  0  0
   -3.4087   -4.5987   -0.8386 C   0  0  0  0  0
    0.7364   -0.7343    0.2750 C   0  0  0  0  0
   -1.1044    1.4729    0.4592 N   0  0  0  0  0
    3.9171   -0.5540   -1.0462 O   0  0  0  0  0
    2.5543   -1.5614   -2.5383 O   0  0  0  0  0
   -3.6180    1.7193    1.0177 O   0  0  0  0  0
   -2.8815    2.0264   -1.3619 O   0  0  0  0  0
   -2.7362    1.3657   -0.0791 S   0  0  0  0  0
   -2.0868   -0.0479   -2.9256 Cl  0  0  0  0  0
  1  2  1  0  0  0
  3  8  1  0  0  0
  4 10  1  0  0  0
  5 11  1  0  0  0
  6 12  1  0  0  0
  7  9  1  0  0  0
  7 13  1  0  0  0
 10 16  1  0  0  0
 12 22  1  0  0  0
 13 17  1  0  0  0
 14  8  1  0  0  0
 15  9  1  0  0  0
 21 11  1  0  0  0
 21 16  1  0  0  0
  1  4  2  0  0  0
  2  7  2  0  0  0
  3  5  2  0  0  0
  6  8  2  0  0  0
  9 10  2  0  0  0
 11 12  2  0  0  0
 13 18  2  0  0  0
 21 19  2  0  0  0
 21 20  2  0  0  0
M  CHG  1  17  -1
M  END
> <rmsd>
0.548068762

$$$$
ZINC12552341


 23 24  0  0  0  0  0  0  0  0999 V2000
    1.6660    2.5894   -1.4416 C   0  0  0  0  0
    0.5219    2.6302   -0.6449 C   0  0  0  0  0
    2.2921    1.3701   -1.7010 C   0  0  0  0  0
   -3.6012   -2.5298    0.6101 C   0  0  0  0  0
   -3.4715   -1.1491    0.7599 C   0  0  0  0  0
   -2.3976   -1.0156   -1.4002 C   0  0  0  0  0
    0.6300    0.2328   -0.3666 C   0  0  0  0  0
   -2.5273   -2.3963   -1.5500 C   0  0  0  0  0
    0.0039    1.4520   -0.1073 C   0  0  0  0  0
    1.7741    0.1919   -1.1634 C   0  0  0  0  0
   -3.1291   -3.1535   -0.5448 C   0  0  0  0  0
   -2.8698   -0.3919   -0.2452 C   0  0  0  0  0
   -2.0282   -3.0515   -2.7698 C   0  0  0  0  0
   -1.1755    1.4946    0.7146 N   0  0  0  0  0
    2.4113   -1.0489   -1.4286 N   0  0  0  0  0
   -1.4773   -2.3272   -3.6812 O   0  0  0  0  0
    3.4388   -1.0632   -2.1487 O   0  0  0  0  0
   -2.1589   -4.3275   -2.8858 O   0  0  0  0  0
    1.9299   -2.0975   -0.9353 O   0  0  0  0  0
   -3.7341    1.7794    0.8791 O   0  0  0  0  0
   -2.6531    1.9465   -1.3799 O   0  0  0  0  0
   -3.2589   -4.4810   -0.6784 F   0  0  0  0  0
   -2.7078    1.3362   -0.0571 S   0  0  0  0  0
  1  2  1  0  0  0
  3 10  1  0  0  0
  4 11  1  0  0  0
  5 12  1  0  0  0
  6  8  1  0  0  0
  7  9  1  0  0  0
  8 13  1  0  0  0
  9 14  1  0  0  0
 10 15  1  0  0  0
 11 22  1  0  0  0
 13 16  1  0  0  0
 15 17  1  0  0  0
 23 12  1  0  0  0
 23 14  1  0  0  0
  1  3  2  0  0  0
  2  9  2  0  0  0
  4  5  2  0  0  0
  6 12  2  0  0  0
  7 10  2  0  0  0
  8 11  2  0  0  0
 13 18  2  0  0  0
 15 19  2  0  0  0
 23 20  2  0  0  0
 23 21  2  0  0  0
M  CHG  3  15   1  16  -1  17  -1
M  END
> <rmsd>
0.559360445

$$$$
ZINC86167325


 25 26  0  0  0  0  0  0  0  0999 V2000
   -2.9048   -3.5626   -1.5887 C   0  0  0  0  0
   -2.7761   -2.1327    0.3915 C   0  0  0  0  0
   -3.8601   -1.3119   -1.6055 C   0  0  0  0  0
    2.0663    3.0754   -1.6184 C   0  0  0  0  0
    2.5726    1.9067   -2.1869 C   0  0  0  0  0
   -3.0471   -0.9252    1.0349 C   0  0  0  0  0
   -4.1312   -0.1045   -0.9620 C   0  0  0  0  0
   -3.1825   -2.3260   -0.9287 C   0  0  0  0  0
    0.9771    3.0132   -0.7493 C   0  0  0  0  0
    0.9004    0.6133   -1.0172 C   0  0  0  0  0
    0.3941    1.7821   -0.4487 C   0  0  0  0  0
    1.9897    0.6756   -1.8863 C   0  0  0  0  0
   -3.7247    0.0889    0.3583 C   0  0  0  0  0
   -1.9531    2.3293    0.2798 C   0  0  0  0  0
    0.4577    4.2830   -0.1562 C   0  0  0  0  0
    0.2729   -0.7081   -0.6931 C   0  0  0  0  0
   -3.3657    3.2906    2.1347 C   0  0  0  0  0
   -2.8756    2.0199    1.4563 C   0  0  0  0  0
   -2.6793   -4.5669   -2.1249 N   0  0  0  0  0
   -0.7110    1.7221    0.4336 N   0  0  0  0  0
    2.5249   -0.5015   -2.4794 N   0  0  0  0  0
    3.4373   -1.1193   -1.8818 O   0  0  0  0  0
   -2.3310    3.0227   -0.6602 O   0  0  0  0  0
    2.0679   -0.8856   -3.5815 O   0  0  0  0  0
   -3.9908    1.2765    0.9910 O   0  0  0  0  0
  2  8  1  0  0  0
  3  7  1  0  0  0
  4  9  1  0  0  0
  5 12  1  0  0  0
  6 13  1  0  0  0
  8  1  1  0  0  0
 10 11  1  0  0  0
 11 20  1  0  0  0
 12 21  1  0  0  0
 13 25  1  0  0  0
 14 20  1  0  0  0
 15  9  1  0  0  0
 16 10  1  0  0  0
 17 18  1  0  0  0
 18 14  1  0  0  0
 18 25  1  0  0  0
 21 22  1  0  0  0
  2  6  2  0  0  0
  3  8  2  0  0  0
  4  5  2  0  0  0
  7 13  2  0  0  0
  9 11  2  0  0  0
 10 12  2  0  0  0
 14 23  2  0  0  0
 21 24  2  0  0  0
  1 19  3  0  0  0
M  CHG  2  21   1  22  -1
M  END
> <rmsd>
0.418210536

$$$$
ZINC84650129


 23 24  0  0  0  0  0  0  0  0999 V2000
    1.0365    2.6425   -2.3454 C   0  0  0  0  0
    1.9459    1.5905   -2.4534 C   0  0  0  0  0
    0.0296    2.5979   -1.3811 C   0  0  0  0  0
   -2.2595   -1.0079   -1.3755 C   0  0  0  0  0
   -3.8647   -2.5078    0.3440 C   0  0  0  0  0
    1.8485    0.4937   -1.5970 C   0  0  0  0  0
   -2.3990   -2.3818   -1.5725 C   0  0  0  0  0
    0.8417    0.4491   -0.6327 C   0  0  0  0  0
   -0.0677    1.5012   -0.5247 C   0  0  0  0  0
   -3.2016   -3.1316   -0.7128 C   0  0  0  0  0
   -3.7252   -1.1339    0.5410 C   0  0  0  0  0
   -2.9225   -0.3841   -0.3187 C   0  0  0  0  0
    2.8220   -0.6055   -1.7316 C   0  0  0  0  0
   -1.6902   -3.0461   -2.7042 C   0  0  0  0  0
    0.7374   -0.7278    0.2862 C   0  0  0  0  0
   -1.1082    1.4763    0.4562 N   0  0  0  0  0
    3.9127   -0.5506   -1.0512 O   0  0  0  0  0
    2.5465   -1.5803   -2.5248 O   0  0  0  0  0
   -3.6196    1.7224    1.0239 O   0  0  0  0  0
   -2.8952    2.0062   -1.3622 O   0  0  0  0  0
   -3.3432   -4.4520   -0.8951 F   0  0  0  0  0
   -4.3682   -0.5459    1.5592 F   0  0  0  0  0
   -2.7422    1.3595   -0.0733 S   0  0  0  0  0
  1  2  1  0  0  0
  3  9  1  0  0  0
  4  7  1  0  0  0
  5 10  1  0  0  0
  6  8  1  0  0  0
  6 13  1  0  0  0
  9 16  1  0  0  0
 10 21  1  0  0  0
 11 12  1  0  0  0
 11 22  1  0  0  0
 13 17  1  0  0  0
 14  7  1  0  0  0
 15  8  1  0  0  0
 23 12  1  0  0  0
 23 16  1  0  0  0
  1  3  2  0  0  0
  2  6  2  0  0  0
  4 12  2  0  0  0
  5 11  2  0  0  0
  7 10  2  0  0  0
  8  9  2  0  0  0
 13 18  2  0  0  0
 23 19  2  0  0  0
 23 20  2  0  0  0
M  CHG  1  17  -1
M  END
> <rmsd>
0.560690641

$$$$
ZINC84650129


 23 24  0  0  0  0  0  0  0  0999 V2000
    0.7086    2.4984   -2.6970 C   0  0  0  0  0
    1.5495    1.4061   -2.9096 C   0  0  0  0  0
   -0.1913    2.4889   -1.6313 C   0  0  0  0  0
   -2.6386   -1.0045   -1.4104 C   0  0  0  0  0
   -4.1231   -2.4491    0.4585 C   0  0  0  0  0
    1.4905    0.3041   -2.0564 C   0  0  0  0  0
   -2.8645   -2.3676   -1.6023 C   0  0  0  0  0
    0.5907    0.2946   -0.9906 C   0  0  0  0  0
   -0.2503    1.3870   -0.7781 C   0  0  0  0  0
   -3.6067   -3.0898   -0.6679 C   0  0  0  0  0
   -3.8972   -1.0861    0.6503 C   0  0  0  0  0
   -3.1549   -0.3639   -0.2841 C   0  0  0  0  0
    2.3900   -0.8380   -2.3026 C   0  0  0  0  0
   -2.3127   -3.0499   -2.8082 C   0  0  0  0  0
    0.5276   -0.8880   -0.0752 C   0  0  0  0  0
   -1.1808    1.3985    0.3078 N   0  0  0  0  0
    3.5480   -0.8436   -1.7418 O   0  0  0  0  0
    1.9851   -1.7883   -3.0696 O   0  0  0  0  0
   -3.6031    1.7556    1.1418 O   0  0  0  0  0
   -3.1229    2.0358   -1.3056 O   0  0  0  0  0
   -3.8306   -4.3996   -0.8444 F   0  0  0  0  0
   -4.3995   -0.4816    1.7359 F   0  0  0  0  0
   -2.8655    1.3659   -0.0454 S   0  0  0  0  0
  1  2  1  0  0  0
  3  9  1  0  0  0
  4  7  1  0  0  0
  5 10  1  0  0  0
  6  8  1  0  0  0
  6 13  1  0  0  0
  9 16  1  0  0  0
 10 21  1  0  0  0
 11 12  1  0  0  0
 11 22  1  0  0  0
 13 17  1  0  0  0
 14  7  1  0  0  0
 15  8  1  0  0  0
 23 12  1  0  0  0
 23 16  1  0  0  0
  1  3  2  0  0  0
  2  6  2  0  0  0
  4 12  2  0  0  0
  5 11  2  0  0  0
  7 10  2  0  0  0
  8  9  2  0  0  0
 13 18  2  0  0  0
 23 19  2  0  0  0
 23 20  2  0  0  0
M  CHG  1  17  -1
M  END
> <rmsd>
0.388203204

$$$$
ZINC84650129


 23 24  0  0  0  0  0  0  0  0999 V2000
    1.0392    2.6456   -2.3425 C   0  0  0  0  0
    1.9485    1.5935   -2.4514 C   0  0  0  0  0
    0.0317    2.5999   -1.3788 C   0  0  0  0  0
   -3.7269   -1.1265    0.5405 C   0  0  0  0  0
   -2.4065   -2.3873   -1.5689 C   0  0  0  0  0
    1.8503    0.4956   -1.5965 C   0  0  0  0  0
   -3.8718   -2.5005    0.3486 C   0  0  0  0  0
    0.8429    0.4499   -0.6328 C   0  0  0  0  0
   -0.0664    1.5021   -0.5240 C   0  0  0  0  0
   -3.2116   -3.1308   -0.7060 C   0  0  0  0  0
   -2.2616   -1.0133   -1.3770 C   0  0  0  0  0
   -2.9218   -0.3829   -0.3224 C   0  0  0  0  0
    2.8237   -0.6035   -1.7319 C   0  0  0  0  0
   -4.7320   -3.2935    1.2736 C   0  0  0  0  0
    0.7377   -0.7282    0.2844 C   0  0  0  0  0
   -1.1075    1.4761    0.4562 N   0  0  0  0  0
    3.9139   -0.5498   -1.0508 O   0  0  0  0  0
    2.5484   -1.5772   -2.5267 O   0  0  0  0  0
   -3.6193    1.7219    1.0227 O   0  0  0  0  0
   -2.8933    2.0088   -1.3626 O   0  0  0  0  0
   -3.3434   -4.4509   -0.8976 F   0  0  0  0  0
   -1.4843   -0.3099   -2.2122 F   0  0  0  0  0
   -2.7412    1.3603   -0.0744 S   0  0  0  0  0
  1  2  1  0  0  0
  3  9  1  0  0  0
  4  7  1  0  0  0
  5 10  1  0  0  0
  6  8  1  0  0  0
  6 13  1  0  0  0
  9 16  1  0  0  0
 10 21  1  0  0  0
 11 12  1  0  0  0
 11 22  1  0  0  0
 13 17  1  0  0  0
 14  7  1  0  0  0
 15  8  1  0  0  0
 23 12  1  0  0  0
 23 16  1  0  0  0
  1  3  2  0  0  0
  2  6  2  0  0  0
  4 12  2  0  0  0
  5 11  2  0  0  0
  7 10  2  0  0  0
  8  9  2  0  0  0
 13 18  2  0  0  0
 23 19  2  0  0  0
 23 20  2  0  0  0
M  CHG  1  17  -1
M  END
> <rmsd>
0.557750165

$$$$
ZINC84650129


 23 24  0  0  0  0  0  0  0  0999 V2000
    0.7115    2.5023   -2.6942 C   0  0  0  0  0
    1.5522    1.4101   -2.9080 C   0  0  0  0  0
   -0.1891    2.4914   -1.6291 C   0  0  0  0  0
   -3.8984   -1.0786    0.6496 C   0  0  0  0  0
   -2.8717   -2.3723   -1.5986 C   0  0  0  0  0
    1.4924    0.3068   -2.0564 C   0  0  0  0  0
   -4.1291   -2.4416    0.4632 C   0  0  0  0  0
    0.5919    0.2959   -0.9913 C   0  0  0  0  0
   -0.2489    1.3883   -0.7776 C   0  0  0  0  0
   -3.6157   -3.0884   -0.6609 C   0  0  0  0  0
   -2.6410   -1.0093   -1.4122 C   0  0  0  0  0
   -3.1544   -0.3625   -0.2881 C   0  0  0  0  0
    2.3917   -0.8351   -2.3038 C   0  0  0  0  0
   -4.9235   -3.2054    1.4681 C   0  0  0  0  0
    0.5278   -0.8880   -0.0776 C   0  0  0  0  0
   -1.1802    1.3984    0.3077 N   0  0  0  0  0
    3.5493   -0.8419   -1.7423 O   0  0  0  0  0
    1.9870   -1.7842   -3.0725 O   0  0  0  0  0
   -3.6028    1.7549    1.1407 O   0  0  0  0  0
   -3.1210    2.0387   -1.3060 O   0  0  0  0  0
   -3.8306   -4.3982   -0.8480 F   0  0  0  0  0
   -1.9237   -0.3324   -2.3197 F   0  0  0  0  0
   -2.8646    1.3668   -0.0467 S   0  0  0  0  0
  1  2  1  0  0  0
  3  9  1  0  0  0
  4  7  1  0  0  0
  5 10  1  0  0  0
  6  8  1  0  0  0
  6 13  1  0  0  0
  9 16  1  0  0  0
 10 21  1  0  0  0
 11 12  1  0  0  0
 11 22  1  0  0  0
 13 17  1  0  0  0
 14  7  1  0  0  0
 15  8  1  0  0  0
 23 12  1  0  0  0
 23 16  1  0  0  0
  1  3  2  0  0  0
  2  6  2  0  0  0
  4 12  2  0  0  0
  5 11  2  0  0  0
  7 10  2  0  0  0
  8  9  2  0  0  0
 13 18  2  0  0  0
 23 19  2  0  0  0
 23 20  2  0  0  0
M  CHG  1  17  -1
M  END
> <rmsd>
0.385924518

$$$$
ZINC84650212


 23 24  0  0  0  0  0  0  0  0999 V2000
    1.0241    2.8837   -2.1857 C   0  0  0  0  0
   -0.0361    2.7669   -1.2869 C   0  0  0  0  0
    0.9953    0.8052   -0.3250 C   0  0  0  0  0
   -3.2102   -1.2087    0.6626 C   0  0  0  0  0
   -2.4236   -2.2420   -1.8065 C   0  0  0  0  0
    2.0556    0.9220   -1.2239 C   0  0  0  0  0
    2.0700    1.9612   -2.1542 C   0  0  0  0  0
   -3.2497   -2.5847    0.4380 C   0  0  0  0  0
   -0.0505    1.7277   -0.3565 C   0  0  0  0  0
   -2.8563   -3.1014   -0.7965 C   0  0  0  0  0
   -2.3843   -0.8659   -1.5818 C   0  0  0  0  0
   -2.7776   -0.3492   -0.3473 C   0  0  0  0  0
    3.1503   -0.0643   -1.1730 C   0  0  0  0  0
    3.1934    2.1100   -3.1280 C   0  0  0  0  0
   -3.7112   -3.5016    1.5199 C   0  0  0  0  0
   -1.1361    1.6082    0.5629 N   0  0  0  0  0
    3.0550   -1.1295   -1.8885 O   0  0  0  0  0
    4.1619    0.1748   -0.4149 O   0  0  0  0  0
   -3.6873    1.6734    0.9970 O   0  0  0  0  0
   -2.8564    2.0618   -1.3392 O   0  0  0  0  0
   -2.8890   -4.4224   -1.0214 F   0  0  0  0  0
   -1.9655   -0.0506   -2.5596 F   0  0  0  0  0
   -2.7295    1.3960   -0.0571 S   0  0  0  0  0
  1  7  1  0  0  0
  2  9  1  0  0  0
  3  6  1  0  0  0
  4 12  1  0  0  0
  5 11  1  0  0  0
  6 13  1  0  0  0
  8 10  1  0  0  0
  9 16  1  0  0  0
 10 21  1  0  0  0
 11 22  1  0  0  0
 13 17  1  0  0  0
 14  7  1  0  0  0
 15  8  1  0  0  0
 23 12  1  0  0  0
 23 16  1  0  0  0
  1  2  2  0  0  0
  3  9  2  0  0  0
  4  8  2  0  0  0
  5 10  2  0  0  0
  6  7  2  0  0  0
 11 12  2  0  0  0
 13 18  2  0  0  0
 23 19  2  0  0  0
 23 20  2  0  0  0
M  CHG  1  17  -1
M  END
> <rmsd>
0.70489192

$$$$
ZINC84650212


 23 24  0  0  0  0  0  0  0  0999 V2000
    0.8717    2.5252   -2.5669 C   0  0  0  0  0
   -0.1049    2.5019   -1.5713 C   0  0  0  0  0
    0.8586    0.4763   -0.6736 C   0  0  0  0  0
   -3.3775   -1.1909    0.7383 C   0  0  0  0  0
   -2.9089   -2.3101   -1.7738 C   0  0  0  0  0
    1.8353    0.4997   -1.6692 C   0  0  0  0  0
    1.8418    1.5241   -2.6159 C   0  0  0  0  0
   -3.5437   -2.5621    0.5438 C   0  0  0  0  0
   -0.1115    1.4775   -0.6246 C   0  0  0  0  0
   -3.3093   -3.1217   -0.7122 C   0  0  0  0  0
   -2.7428   -0.9390   -1.5791 C   0  0  0  0  0
   -2.9772   -0.3793   -0.3232 C   0  0  0  0  0
    2.8507   -0.5687   -1.7023 C   0  0  0  0  0
    2.8765    1.5736   -3.6926 C   0  0  0  0  0
   -3.9703   -3.4279    1.6808 C   0  0  0  0  0
   -1.1116    1.4536    0.3940 N   0  0  0  0  0
    2.6068   -1.6311   -2.3860 O   0  0  0  0  0
    3.9448   -0.4011   -1.0462 O   0  0  0  0  0
   -3.5978    1.7232    1.0624 O   0  0  0  0  0
   -2.9635    2.0192   -1.3478 O   0  0  0  0  0
   -3.4646   -4.4385   -0.9087 F   0  0  0  0  0
   -2.3566   -0.1699   -2.6066 F   0  0  0  0  0
   -2.7678    1.3600   -0.0709 S   0  0  0  0  0
  1  7  1  0  0  0
  2  9  1  0  0  0
  3  6  1  0  0  0
  4 12  1  0  0  0
  5 11  1  0  0  0
  6 13  1  0  0  0
  8 10  1  0  0  0
  9 16  1  0  0  0
 10 21  1  0  0  0
 11 22  1  0  0  0
 13 17  1  0  0  0
 14  7  1  0  0  0
 15  8  1  0  0  0
 23 12  1  0  0  0
 23 16  1  0  0  0
  1  2  2  0  0  0
  3  9  2  0  0  0
  4  8  2  0  0  0
  5 10  2  0  0  0
  6  7  2  0  0  0
 11 12  2  0  0  0
 13 18  2  0  0  0
 23 19  2  0  0  0
 23 20  2  0  0  0
M  CHG  1  17  -1
M  END
> <rmsd>
0.524178565

$$$$
ZINC47317879


 23 24  0  0  0  0  0  0  0  0999 V2000
   -2.7621   -2.3059   -1.7796 C   0  0  0  0  0
   -3.4657   -2.5742    0.5160 C   0  0  0  0  0
   -2.6281   -0.9322   -1.5780 C   0  0  0  0  0
   -3.3317   -1.2006    0.7177 C   0  0  0  0  0
    0.8315    0.4727   -0.6473 C   0  0  0  0  0
    1.0382    2.6614   -2.3646 C   0  0  0  0  0
    1.8398    0.5107   -1.6105 C   0  0  0  0  0
   -3.1810   -3.1269   -0.7326 C   0  0  0  0  0
   -0.0734    1.5290   -0.5429 C   0  0  0  0  0
    1.9431    1.6051   -2.4691 C   0  0  0  0  0
    0.0299    2.6234   -1.4014 C   0  0  0  0  0
   -2.9128   -0.3795   -0.3295 C   0  0  0  0  0
    2.7934   -0.6055   -1.7182 C   0  0  0  0  0
   -4.7263   -4.9768   -1.4230 C   0  0  0  0  0
   -3.3264   -4.5952   -0.9483 C   0  0  0  0  0
   -1.1046    1.4877    0.4439 N   0  0  0  0  0
    2.6739   -1.6026   -0.9119 O   0  0  0  0  0
    3.7159   -0.5479   -2.6150 O   0  0  0  0  0
   -3.6151    1.7122    1.0334 O   0  0  0  0  0
   -2.9106    2.0182   -1.3561 O   0  0  0  0  0
    2.9082    1.6520   -3.3982 F   0  0  0  0  0
   -0.8344    3.6439   -1.3096 F   0  0  0  0  0
   -2.7433    1.3635   -0.0728 S   0  0  0  0  0
  1  8  1  0  0  0
  2  4  1  0  0  0
  3 12  1  0  0  0
  5  9  1  0  0  0
  6 11  1  0  0  0
  7 10  1  0  0  0
  7 13  1  0  0  0
  9 16  1  0  0  0
 10 21  1  0  0  0
 11 22  1  0  0  0
 13 17  1  0  0  0
 14 15  1  0  0  0
 15  8  1  0  0  0
 23 12  1  0  0  0
 23 16  1  0  0  0
  1  3  2  0  0  0
  2  8  2  0  0  0
  4 12  2  0  0  0
  5  7  2  0  0  0
  6 10  2  0  0  0
  9 11  2  0  0  0
 13 18  2  0  0  0
 23 19  2  0  0  0
 23 20  2  0  0  0
M  CHG  1  17  -1
M  END
> <rmsd>
0.577933371

$$$$
ZINC84460880


 24 26  0  0  0  0  0  0  0  0999 V2000
   -4.0830   -3.2966    0.0402 C   0  0  0  0  0
   -3.7306   -2.3352    0.9828 C   0  0  0  0  0
   -3.4713   -0.0335   -3.5165 C   0  0  0  0  0
    1.5556    3.2755   -1.3623 C   0  0  0  0  0
   -4.1080   -2.9692   -1.3157 C   0  0  0  0  0
   -3.4020   -1.0427    0.5731 C   0  0  0  0  0
   -3.7999   -1.3260   -3.1068 C   0  0  0  0  0
    2.2645    2.2470   -1.9830 C   0  0  0  0  0
    0.4502    2.9784   -0.5650 C   0  0  0  0  0
   -3.1189    0.9278   -2.5739 C   0  0  0  0  0
   -3.7801   -1.6731   -1.7462 C   0  0  0  0  0
   -3.4218   -0.6955   -0.7876 C   0  0  0  0  0
    1.8680    0.9214   -1.8064 C   0  0  0  0  0
    0.7627    0.6243   -1.0092 C   0  0  0  0  0
    0.0537    1.6528   -0.3885 C   0  0  0  0  0
   -3.0939    0.6005   -1.2179 C   0  0  0  0  0
    2.6340   -0.1475   -2.4733 C   0  0  0  0  0
    0.3374   -0.7983   -0.8198 C   0  0  0  0  0
   -1.0892    1.3699    0.4372 N   0  0  0  0  0
    3.6278   -0.6757   -1.8498 O   0  0  0  0  0
    2.2818   -0.5138   -3.6553 O   0  0  0  0  0
   -3.5600    1.8356    1.0144 O   0  0  0  0  0
   -2.5076    3.1179   -0.8692 O   0  0  0  0  0
   -2.6370    1.8850   -0.1091 S   0  0  0  0  0
  1  2  1  0  0  0
  3  7  1  0  0  0
  4  8  1  0  0  0
  5 11  1  0  0  0
  6 12  1  0  0  0
  9 15  1  0  0  0
 10 16  1  0  0  0
 11 12  1  0  0  0
 13 14  1  0  0  0
 13 17  1  0  0  0
 15 19  1  0  0  0
 17 20  1  0  0  0
 18 14  1  0  0  0
 24 16  1  0  0  0
 24 19  1  0  0  0
  1  5  2  0  0  0
  2  6  2  0  0  0
  3 10  2  0  0  0
  4  9  2  0  0  0
  7 11  2  0  0  0
  8 13  2  0  0  0
 12 16  2  0  0  0
 14 15  2  0  0  0
 17 21  2  0  0  0
 24 22  2  0  0  0
 24 23  2  0  0  0
M  CHG  1  20  -1
M  END
> <rmsd>
0.378316581

$$$$
ZINC84460880


 24 26  0  0  0  0  0  0  0  0999 V2000
   -2.9975   -3.1434    2.9345 C   0  0  0  0  0
   -2.7665   -1.7932    3.1805 C   0  0  0  0  0
   -3.6555   -2.1705   -1.7870 C   0  0  0  0  0
    0.6668    2.4382   -2.7553 C   0  0  0  0  0
   -3.2768   -3.5795    1.6391 C   0  0  0  0  0
   -2.8138   -0.8740    2.1320 C   0  0  0  0  0
   -3.6081   -3.0897   -0.7386 C   0  0  0  0  0
    1.5148    1.3473   -2.9467 C   0  0  0  0  0
   -0.2213    2.4508   -1.6797 C   0  0  0  0  0
   -3.4245   -0.8203   -1.5410 C   0  0  0  0  0
   -3.3285   -2.6683    0.5716 C   0  0  0  0  0
   -3.0935   -1.2953    0.8218 C   0  0  0  0  0
    1.4745    0.2691   -2.0628 C   0  0  0  0  0
    0.5863    0.2816   -0.9874 C   0  0  0  0  0
   -0.2616    1.3725   -0.7958 C   0  0  0  0  0
   -3.1452   -0.3840   -0.2456 C   0  0  0  0  0
    2.3810   -0.8720   -2.2872 C   0  0  0  0  0
    0.5432   -0.8755   -0.0388 C   0  0  0  0  0
   -1.1856    1.4067    0.3057 N   0  0  0  0  0
    3.5450   -0.8524   -1.7393 O   0  0  0  0  0
    1.9761   -1.8465   -3.0231 O   0  0  0  0  0
   -3.5991    1.7562    1.1470 O   0  0  0  0  0
   -3.1398    1.9977   -1.3087 O   0  0  0  0  0
   -2.8695    1.3393   -0.0405 S   0  0  0  0  0
  1  2  1  0  0  0
  3  7  1  0  0  0
  4  8  1  0  0  0
  5 11  1  0  0  0
  6 12  1  0  0  0
  9 15  1  0  0  0
 10 16  1  0  0  0
 11 12  1  0  0  0
 13 14  1  0  0  0
 13 17  1  0  0  0
 15 19  1  0  0  0
 17 20  1  0  0  0
 18 14  1  0  0  0
 24 16  1  0  0  0
 24 19  1  0  0  0
  1  5  2  0  0  0
  2  6  2  0  0  0
  3 10  2  0  0  0
  4  9  2  0  0  0
  7 11  2  0  0  0
  8 13  2  0  0  0
 12 16  2  0  0  0
 14 15  2  0  0  0
 17 21  2  0  0  0
 24 22  2  0  0  0
 24 23  2  0  0  0
M  CHG  1  20  -1
M  END
> <rmsd>
0.396694928

$$$$
ZINC84460880


 24 26  0  0  0  0  0  0  0  0999 V2000
   -3.9642   -3.3311    0.1133 C   0  0  0  0  0
   -3.7226   -2.3172    1.0356 C   0  0  0  0  0
   -2.9203   -0.2718   -3.5231 C   0  0  0  0  0
    1.8281    3.1664   -0.9754 C   0  0  0  0  0
   -3.8264   -3.0805   -1.2522 C   0  0  0  0  0
   -3.3422   -1.0490    0.5959 C   0  0  0  0  0
   -3.3007   -1.5400   -3.0834 C   0  0  0  0  0
    2.6016    2.1065   -1.4484 C   0  0  0  0  0
    0.6345    2.9118   -0.2999 C   0  0  0  0  0
   -2.6787    0.7420   -2.6008 C   0  0  0  0  0
   -3.4443   -1.8100   -1.7127 C   0  0  0  0  0
   -3.1986   -0.7790   -0.7748 C   0  0  0  0  0
    2.1815    0.7918   -1.2461 C   0  0  0  0  0
    0.9879    0.5372   -0.5707 C   0  0  0  0  0
    0.2144    1.5972   -0.0976 C   0  0  0  0  0
   -2.8165    0.4916   -1.2352 C   0  0  0  0  0
    3.0170   -0.3109   -1.7560 C   0  0  0  0  0
    0.5372   -0.8736   -0.3536 C   0  0  0  0  0
   -1.0198    1.3582    0.6009 N   0  0  0  0  0
    3.9273   -0.8006   -0.9899 O   0  0  0  0  0
    2.8063   -0.7441   -2.9490 O   0  0  0  0  0
   -3.5398    1.8492    0.8528 O   0  0  0  0  0
   -2.2655    3.0262   -0.9612 O   0  0  0  0  0
   -2.4895    1.8377   -0.1538 S   0  0  0  0  0
  1  2  1  0  0  0
  3  7  1  0  0  0
  4  8  1  0  0  0
  5 11  1  0  0  0
  6 12  1  0  0  0
  9 15  1  0  0  0
 10 16  1  0  0  0
 11 12  1  0  0  0
 13 14  1  0  0  0
 13 17  1  0  0  0
 15 19  1  0  0  0
 17 20  1  0  0  0
 18 14  1  0  0  0
 24 16  1  0  0  0
 24 19  1  0  0  0
  1  5  2  0  0  0
  2  6  2  0  0  0
  3 10  2  0  0  0
  4  9  2  0  0  0
  7 11  2  0  0  0
  8 13  2  0  0  0
 12 16  2  0  0  0
 14 15  2  0  0  0
 17 21  2  0  0  0
 24 22  2  0  0  0
 24 23  2  0  0  0
M  CHG  1  20  -1
M  END
> <rmsd>
0.444755137

$$$$
ZINC84460880


 24 26  0  0  0  0  0  0  0  0999 V2000
   -2.9621   -3.1328    2.9253 C   0  0  0  0  0
   -2.8256   -1.7713    3.1797 C   0  0  0  0  0
   -3.1701   -2.2200   -1.8492 C   0  0  0  0  0
    0.9952    2.5961   -2.4107 C   0  0  0  0  0
   -3.0824   -3.5895    1.6126 C   0  0  0  0  0
   -2.8086   -0.8614    2.1222 C   0  0  0  0  0
   -3.1871   -3.1299   -0.7917 C   0  0  0  0  0
    1.9117    1.5485   -2.5012 C   0  0  0  0  0
   -0.0002    2.5696   -1.4338 C   0  0  0  0  0
   -3.0336   -0.8585   -1.5948 C   0  0  0  0  0
   -3.0673   -2.6879    0.5359 C   0  0  0  0  0
   -2.9284   -1.3034    0.7945 C   0  0  0  0  0
    1.8329    0.4744   -1.6147 C   0  0  0  0  0
    0.8375    0.4478   -0.6380 C   0  0  0  0  0
   -0.0790    1.4955   -0.5475 C   0  0  0  0  0
   -2.9134   -0.4017   -0.2821 C   0  0  0  0  0
    2.8135   -0.6205   -1.7313 C   0  0  0  0  0
    0.7530   -0.7049    0.3132 C   0  0  0  0  0
   -1.1138    1.4888    0.4513 N   0  0  0  0  0
    3.9114   -0.5392   -1.0653 O   0  0  0  0  0
    2.5367   -1.6183   -2.4950 O   0  0  0  0  0
   -3.6164    1.7203    1.0327 O   0  0  0  0  0
   -2.9153    1.9715   -1.3641 O   0  0  0  0  0
   -2.7467    1.3345   -0.0678 S   0  0  0  0  0
  1  2  1  0  0  0
  3  7  1  0  0  0
  4  8  1  0  0  0
  5 11  1  0  0  0
  6 12  1  0  0  0
  9 15  1  0  0  0
 10 16  1  0  0  0
 11 12  1  0  0  0
 13 14  1  0  0  0
 13 17  1  0  0  0
 15 19  1  0  0  0
 17 20  1  0  0  0
 18 14  1  0  0  0
 24 16  1  0  0  0
 24 19  1  0  0  0
  1  5  2  0  0  0
  2  6  2  0  0  0
  3 10  2  0  0  0
  4  9  2  0  0  0
  7 11  2  0  0  0
  8 13  2  0  0  0
 12 16  2  0  0  0
 14 15  2  0  0  0
 17 21  2  0  0  0
 24 22  2  0  0  0
 24 23  2  0  0  0
M  CHG  1  20  -1
M  END
> <rmsd>
0.573668182

$$$$
ZINC84460617


 24 26  0  0  0  0  0  0  0  0999 V2000
   -4.0228   -3.3026    0.1382 C   0  0  0  0  0
   -3.8127   -2.2887    1.0681 C   0  0  0  0  0
   -2.9841   -0.2085   -3.4701 C   0  0  0  0  0
   -3.8705   -3.0435   -1.2242 C   0  0  0  0  0
   -3.4494   -1.0117    0.6392 C   0  0  0  0  0
   -3.3474   -1.4855   -3.0412 C   0  0  0  0  0
    1.2487    1.4259   -2.1437 C   0  0  0  0  0
    0.1666    1.7632   -1.3306 C   0  0  0  0  0
   -2.7740    0.8054   -2.5402 C   0  0  0  0  0
    1.8952   -0.2907   -0.5711 C   0  0  0  0  0
   -3.5052   -1.7641   -1.6739 C   0  0  0  0  0
   -3.2915   -0.7330   -0.7282 C   0  0  0  0  0
    2.1130    0.3989   -1.7639 C   0  0  0  0  0
    0.8131    0.0466    0.2419 C   0  0  0  0  0
   -0.0512    1.0736   -0.1378 C   0  0  0  0  0
   -2.9263    0.5464   -1.1778 C   0  0  0  0  0
    3.2551    0.0439   -2.6216 C   0  0  0  0  0
    0.6024   -0.7072    1.5145 C   0  0  0  0  0
   -1.1716    1.4373    0.6871 N   0  0  0  0  0
    4.0383   -0.9079   -2.2483 O   0  0  0  0  0
    3.4341    0.6969   -3.7172 O   0  0  0  0  0
   -3.7034    1.8812    0.9055 O   0  0  0  0  0
   -2.4256    3.0893   -0.8853 O   0  0  0  0  0
   -2.6392    1.8933   -0.0862 S   0  0  0  0  0
  1  2  1  0  0  0
  3  6  1  0  0  0
  4 11  1  0  0  0
  5 12  1  0  0  0
  7 13  1  0  0  0
  8 15  1  0  0  0
  9 16  1  0  0  0
 10 14  1  0  0  0
 11 12  1  0  0  0
 13 17  1  0  0  0
 15 19  1  0  0  0
 17 20  1  0  0  0
 18 14  1  0  0  0
 24 16  1  0  0  0
 24 19  1  0  0  0
  1  4  2  0  0  0
  2  5  2  0  0  0
  3  9  2  0  0  0
  6 11  2  0  0  0
  7  8  2  0  0  0
 10 13  2  0  0  0
 12 16  2  0  0  0
 14 15  2  0  0  0
 17 21  2  0  0  0
 24 22  2  0  0  0
 24 23  2  0  0  0
M  CHG  1  20  -1
M  END
> <rmsd>
0.454379022

$$$$
ZINC84460880


 24 26  0  0  0  0  0  0  0  0999 V2000
   -3.5513   -3.3429   -0.3124 C   0  0  0  0  0
   -3.2454   -2.4345    0.6966 C   0  0  0  0  0
   -3.5480    0.2726   -3.5682 C   0  0  0  0  0
    0.7020    2.2068   -2.8525 C   0  0  0  0  0
   -3.7041   -2.9014   -1.6270 C   0  0  0  0  0
   -3.0910   -1.0812    0.3950 C   0  0  0  0  0
   -3.7024   -1.0808   -3.2666 C   0  0  0  0  0
    1.7123    1.2466   -2.7996 C   0  0  0  0  0
   -0.2140    2.3138   -1.8061 C   0  0  0  0  0
   -3.2421    1.1810   -2.5592 C   0  0  0  0  0
   -3.5523   -1.5428   -1.9489 C   0  0  0  0  0
   -3.2412   -0.6191   -0.9227 C   0  0  0  0  0
    1.8064    0.3931   -1.7004 C   0  0  0  0  0
    0.8903    0.4999   -0.6540 C   0  0  0  0  0
   -0.1200    1.4603   -0.7068 C   0  0  0  0  0
   -3.0893    0.7396   -1.2446 C   0  0  0  0  0
    2.8833   -0.6135   -1.6685 C   0  0  0  0  0
    0.9914   -0.4159    0.5256 C   0  0  0  0  0
   -1.0756    1.5881    0.3602 N   0  0  0  0  0
    4.0113   -0.2940   -1.1384 O   0  0  0  0  0
    2.6570   -1.7756   -2.1723 O   0  0  0  0  0
   -3.5383    1.7082    1.1189 O   0  0  0  0  0
   -2.7646    3.2673   -0.6895 O   0  0  0  0  0
   -2.7045    1.9649   -0.0452 S   0  0  0  0  0
  1  2  1  0  0  0
  3  7  1  0  0  0
  4  8  1  0  0  0
  5 11  1  0  0  0
  6 12  1  0  0  0
  9 15  1  0  0  0
 10 16  1  0  0  0
 11 12  1  0  0  0
 13 14  1  0  0  0
 13 17  1  0  0  0
 15 19  1  0  0  0
 17 20  1  0  0  0
 18 14  1  0  0  0
 24 16  1  0  0  0
 24 19  1  0  0  0
  1  5  2  0  0  0
  2  6  2  0  0  0
  3 10  2  0  0  0
  4  9  2  0  0  0
  7 11  2  0  0  0
  8 13  2  0  0  0
 12 16  2  0  0  0
 14 15  2  0  0  0
 17 21  2  0  0  0
 24 22  2  0  0  0
 24 23  2  0  0  0
M  CHG  1  20  -1
M  END
> <rmsd>
0.523742199

$$$$
ZINC84460880


 24 26  0  0  0  0  0  0  0  0999 V2000
   -3.9945   -3.2851   -0.1917 C   0  0  0  0  0
   -3.5446   -2.3983    0.7819 C   0  0  0  0  0
   -4.0126    0.3160   -3.4634 C   0  0  0  0  0
    0.4048    1.9537   -3.1147 C   0  0  0  0  0
   -4.2249   -2.8363   -1.4925 C   0  0  0  0  0
   -3.3232   -1.0593    0.4586 C   0  0  0  0  0
   -4.2339   -1.0230   -3.1400 C   0  0  0  0  0
    1.3477    0.9262   -3.1381 C   0  0  0  0  0
   -0.4121    2.1254   -1.9971 C   0  0  0  0  0
   -3.5626    1.2028   -2.4897 C   0  0  0  0  0
   -4.0074   -1.4920   -1.8358 C   0  0  0  0  0
   -3.5498   -0.5902   -0.8456 C   0  0  0  0  0
    1.4736    0.0701   -2.0441 C   0  0  0  0  0
    0.6567    0.2417   -0.9265 C   0  0  0  0  0
   -0.2862    1.2693   -0.9030 C   0  0  0  0  0
   -3.3323    0.7542   -1.1889 C   0  0  0  0  0
    2.4779   -1.0083   -2.0936 C   0  0  0  0  0
    0.7920   -0.6770    0.2474 C   0  0  0  0  0
   -1.1392    1.4645    0.2382 N   0  0  0  0  0
    3.6651   -0.7665   -1.6607 O   0  0  0  0  0
    2.1315   -2.1529   -2.5685 O   0  0  0  0  0
   -3.5166    1.7554    1.1963 O   0  0  0  0  0
   -2.7902    3.2544   -0.6811 O   0  0  0  0  0
   -2.7664    1.9521   -0.0344 S   0  0  0  0  0
  1  2  1  0  0  0
  3  7  1  0  0  0
  4  8  1  0  0  0
  5 11  1  0  0  0
  6 12  1  0  0  0
  9 15  1  0  0  0
 10 16  1  0  0  0
 11 12  1  0  0  0
 13 14  1  0  0  0
 13 17  1  0  0  0
 15 19  1  0  0  0
 17 20  1  0  0  0
 18 14  1  0  0  0
 24 16  1  0  0  0
 24 19  1  0  0  0
  1  5  2  0  0  0
  2  6  2  0  0  0
  3 10  2  0  0  0
  4  9  2  0  0  0
  7 11  2  0  0  0
  8 13  2  0  0  0
 12 16  2  0  0  0
 14 15  2  0  0  0
 17 21  2  0  0  0
 24 22  2  0  0  0
 24 23  2  0  0  0
M  CHG  1  20  -1
M  END
> <rmsd>
0.430869311

$$$$
ZINC12291079


 24 26  0  0  0  0  0  0  0  0999 V2000
   -3.8676   -3.3238    0.0870 C   0  0  0  0  0
   -3.7145   -2.3085    1.0265 C   0  0  0  0  0
   -3.6816   -3.0543   -1.2692 C   0  0  0  0  0
   -3.3748   -1.0200    0.6136 C   0  0  0  0  0
    1.6321    1.7822   -1.7091 C   0  0  0  0  0
    1.6943   -0.4147   -0.7057 C   0  0  0  0  0
   -2.8088   -0.1851   -3.4768 C   0  0  0  0  0
    0.5134    2.1019   -0.9398 C   0  0  0  0  0
    0.5756   -0.0950    0.0637 C   0  0  0  0  0
   -2.6558    0.8300   -2.5372 C   0  0  0  0  0
   -3.3395   -1.7630   -1.7028 C   0  0  0  0  0
   -3.1839   -0.7306   -0.7474 C   0  0  0  0  0
    2.2225    0.5239   -1.5921 C   0  0  0  0  0
   -3.1484   -1.4738   -3.0638 C   0  0  0  0  0
   -0.0148    1.1633   -0.0533 C   0  0  0  0  0
   -2.8418    0.5606   -1.1810 C   0  0  0  0  0
    3.4035    0.1866   -2.4034 C   0  0  0  0  0
   -3.2973   -2.5186   -4.1263 C   0  0  0  0  0
   -1.1692    1.4923    0.7387 N   0  0  0  0  0
    3.9297   -0.9820   -2.2760 O   0  0  0  0  0
    3.8721    1.0713   -3.2134 O   0  0  0  0  0
   -3.7178    1.8648    0.8824 O   0  0  0  0  0
   -2.4212    3.1153   -0.8653 O   0  0  0  0  0
   -2.6251    1.9105   -0.0770 S   0  0  0  0  0
  1  2  1  0  0  0
  3 11  1  0  0  0
  4 12  1  0  0  0
  5 13  1  0  0  0
  6  9  1  0  0  0
  7 14  1  0  0  0
  8 15  1  0  0  0
 10 16  1  0  0  0
 11 12  1  0  0  0
 13 17  1  0  0  0
 15 19  1  0  0  0
 17 20  1  0  0  0
 18 14  1  0  0  0
 24 16  1  0  0  0
 24 19  1  0  0  0
  1  3  2  0  0  0
  2  4  2  0  0  0
  5  8  2  0  0  0
  6 13  2  0  0  0
  7 10  2  0  0  0
  9 15  2  0  0  0
 11 14  2  0  0  0
 12 16  2  0  0  0
 17 21  2  0  0  0
 24 22  2  0  0  0
 24 23  2  0  0  0
M  CHG  1  20  -1
M  END
> <rmsd>
0.467033535

$$$$
ZINC84460974


 24 26  0  0  0  0  0  0  0  0999 V2000
   -3.6572   -3.3035   -0.3714 C   0  0  0  0  0
   -3.2769   -2.4279    0.6413 C   0  0  0  0  0
   -3.9444    0.4233   -3.4860 C   0  0  0  0  0
    0.7076    2.5789   -2.8059 C   0  0  0  0  0
   -3.9194   -2.8179   -1.6527 C   0  0  0  0  0
   -3.1573   -1.0633    0.3765 C   0  0  0  0  0
   -4.0640   -0.9413   -3.2212 C   0  0  0  0  0
    1.3787    1.3898   -3.0907 C   0  0  0  0  0
   -0.1336    2.6566   -1.6960 C   0  0  0  0  0
   -3.5641    1.2989   -2.4732 C   0  0  0  0  0
    0.3672    0.3557   -1.1555 C   0  0  0  0  0
   -3.8040   -1.4474   -1.9373 C   0  0  0  0  0
   -3.4173   -0.5570   -0.9074 C   0  0  0  0  0
    1.2085    0.2782   -2.2655 C   0  0  0  0  0
   -0.3039    1.5449   -0.8708 C   0  0  0  0  0
   -3.3019    0.8135   -1.1919 C   0  0  0  0  0
    3.2818   -1.0002   -1.8657 C   0  0  0  0  0
    1.9258   -0.9933   -2.5704 C   0  0  0  0  0
   -1.1707    1.6257    0.2739 N   0  0  0  0  0
    3.2322   -0.9546   -0.6040 O   0  0  0  0  0
    4.2857   -1.0428   -2.6320 O   0  0  0  0  0
   -3.5644    1.6944    1.2332 O   0  0  0  0  0
   -2.9514    3.3234   -0.5752 O   0  0  0  0  0
   -2.8298    2.0000    0.0153 S   0  0  0  0  0
  1  2  1  0  0  0
  3  7  1  0  0  0
  4  8  1  0  0  0
  5 12  1  0  0  0
  6 13  1  0  0  0
  9 15  1  0  0  0
 10 16  1  0  0  0
 11 14  1  0  0  0
 12 13  1  0  0  0
 15 19  1  0  0  0
 17 20  1  0  0  0
 18 14  1  0  0  0
 18 17  1  0  0  0
 24 16  1  0  0  0
 24 19  1  0  0  0
  1  5  2  0  0  0
  2  6  2  0  0  0
  3 10  2  0  0  0
  4  9  2  0  0  0
  7 12  2  0  0  0
  8 14  2  0  0  0
 11 15  2  0  0  0
 13 16  2  0  0  0
 17 21  2  0  0  0
 24 22  2  0  0  0
 24 23  2  0  0  0
M  CHG  1  20  -1
M  END
> <rmsd>
0.478425831

$$$$
ZINC64873516


 25 26  0  0  0  0  0  0  0  0999 V2000
    1.2993   -1.0071   -0.8030 C   0  0  0  0  0
    2.4063    1.1060   -1.1850 C   0  0  0  0  0
   -3.2305   -2.2219    0.7650 C   0  0  0  0  0
   -3.5630   -1.4495   -1.4999 C   0  0  0  0  0
    0.2703   -0.3467   -0.1316 C   0  0  0  0  0
    1.3774    1.7664   -0.5137 C   0  0  0  0  0
   -3.5020   -0.9396    1.2422 C   0  0  0  0  0
   -3.8346   -0.1673   -1.0228 C   0  0  0  0  0
    2.3673   -0.2808   -1.3296 C   0  0  0  0  0
   -3.2610   -2.4768   -0.6060 C   0  0  0  0  0
    0.3093    1.0401    0.0130 C   0  0  0  0  0
   -3.8041    0.0877    0.3483 C   0  0  0  0  0
    3.4528   -0.9771   -2.0388 C   0  0  0  0  0
   -0.8551    3.0775    0.9272 C   0  0  0  0  0
   -1.7234   -3.8889   -2.0188 C   0  0  0  0  0
   -4.1719   -4.4667   -1.8568 C   0  0  0  0  0
   -2.1342    3.3783    1.6982 C   0  0  0  0  0
   -3.3435    3.6451    0.8069 C   0  0  0  0  0
   -3.7321    2.4338   -0.0342 C   0  0  0  0  0
   -2.9712   -3.8478   -1.1162 C   0  0  0  0  0
   -0.7349    1.7103    0.6935 N   0  0  0  0  0
    4.4271   -0.2827   -2.5158 O   0  0  0  0  0
    3.3928   -2.2580   -2.1596 O   0  0  0  0  0
   -0.0656    3.9591    0.6048 O   0  0  0  0  0
   -4.0722    1.3470    0.8172 O   0  0  0  0  0
  1  9  1  0  0  0
  2  6  1  0  0  0
  3 10  1  0  0  0
  4  8  1  0  0  0
  5 11  1  0  0  0
  7 12  1  0  0  0
  9 13  1  0  0  0
 11 21  1  0  0  0
 12 25  1  0  0  0
 13 22  1  0  0  0
 14 21  1  0  0  0
 15 20  1  0  0  0
 16 20  1  0  0  0
 17 14  1  0  0  0
 17 18  1  0  0  0
 18 19  1  0  0  0
 19 25  1  0  0  0
 20 10  1  0  0  0
  1  5  2  0  0  0
  2  9  2  0  0  0
  3  7  2  0  0  0
  4 10  2  0  0  0
  6 11  2  0  0  0
  8 12  2  0  0  0
 13 23  2  0  0  0
 14 24  2  0  0  0
M  CHG  1  22  -1
M  END
> <rmsd>
0.414723039

$$$$
ZINC26844960


 22 23  0  0  0  0  0  0  0  0999 V2000
    0.8860    2.5202   -2.5539 C   0  0  0  0  0
    1.8534    1.5165   -2.6008 C   0  0  0  0  0
   -0.0945    2.4980   -1.5618 C   0  0  0  0  0
   -3.3863   -1.1760    0.7394 C   0  0  0  0  0
   -3.5596   -2.5482    0.5585 C   0  0  0  0  0
    0.8598    0.4683   -0.6640 C   0  0  0  0  0
   -2.9189   -2.3235   -1.7602 C   0  0  0  0  0
    1.8403    0.4905   -1.6559 C   0  0  0  0  0
   -0.1076    1.4721   -0.6170 C   0  0  0  0  0
   -2.7456   -0.9512   -1.5792 C   0  0  0  0  0
   -2.9794   -0.3775   -0.3295 C   0  0  0  0  0
   -3.3259   -3.1220   -0.6912 C   0  0  0  0  0
    2.8614   -0.5686   -1.7063 C   0  0  0  0  0
   -2.1321   -0.8640   -3.8752 C   0  0  0  0  0
   -1.1114    1.4490    0.3978 N   0  0  0  0  0
    2.8276   -1.5044   -0.8222 O   0  0  0  0  0
    3.7550   -0.5243   -2.6326 O   0  0  0  0  0
   -3.5995    1.7242    1.0577 O   0  0  0  0  0
   -2.9554    2.0228   -1.3497 O   0  0  0  0  0
   -2.3467   -0.1903   -2.6366 O   0  0  0  0  0
   -2.7662    1.3607   -0.0733 S   0  0  0  0  0
   -3.5399   -4.8148   -0.9145 Cl  0  0  0  0  0
  1  2  1  0  0  0
  3  9  1  0  0  0
  4 11  1  0  0  0
  5 12  1  0  0  0
  6  8  1  0  0  0
  7 10  1  0  0  0
  8 13  1  0  0  0
  9 15  1  0  0  0
 10 20  1  0  0  0
 12 22  1  0  0  0
 13 16  1  0  0  0
 14 20  1  0  0  0
 21 11  1  0  0  0
 21 15  1  0  0  0
  1  3  2  0  0  0
  2  8  2  0  0  0
  4  5  2  0  0  0
  6  9  2  0  0  0
  7 12  2  0  0  0
 10 11  2  0  0  0
 13 17  2  0  0  0
 21 18  2  0  0  0
 21 19  2  0  0  0
M  CHG  1  16  -1
M  END
> <rmsd>
0.515010297

$$$$
ZINC01058448


 22 23  0  0  0  0  0  0  0  0999 V2000
   -3.6271   -3.0911   -0.6475 C   0  0  0  0  0
   -3.7625   -2.5249    0.6200 C   0  0  0  0  0
   -3.2582   -2.2944   -1.7315 C   0  0  0  0  0
   -3.5291   -1.1621    0.8037 C   0  0  0  0  0
   -3.0249   -0.9315   -1.5479 C   0  0  0  0  0
    1.5561    1.3985   -2.8966 C   0  0  0  0  0
   -0.1879    2.4734   -1.6160 C   0  0  0  0  0
    1.4995    0.2940   -2.0467 C   0  0  0  0  0
   -0.2446    1.3688   -0.7661 C   0  0  0  0  0
    0.7125    2.4883   -2.6812 C   0  0  0  0  0
   -3.1603   -0.3654   -0.2803 C   0  0  0  0  0
    0.5991    0.2790   -0.9814 C   0  0  0  0  0
    2.4100   -0.8370   -2.3117 C   0  0  0  0  0
    1.7098    3.5148   -4.5807 C   0  0  0  0  0
   -1.1817    1.3905    0.3159 N   0  0  0  0  0
    3.5699   -0.8367   -1.7566 O   0  0  0  0  0
    2.0099   -1.7808   -3.0880 O   0  0  0  0  0
   -3.6057    1.7620    1.1345 O   0  0  0  0  0
   -3.1112    2.0299   -1.3115 O   0  0  0  0  0
    0.7670    3.5659   -3.5109 O   0  0  0  0  0
   -2.8637    1.3639   -0.0472 S   0  0  0  0  0
    0.5277   -1.0939    0.0752 Cl  0  0  0  0  0
  1  2  1  0  0  0
  3  5  1  0  0  0
  4 11  1  0  0  0
  6 10  1  0  0  0
  7  9  1  0  0  0
  8 12  1  0  0  0
  8 13  1  0  0  0
  9 15  1  0  0  0
 10 20  1  0  0  0
 12 22  1  0  0  0
 13 16  1  0  0  0
 14 20  1  0  0  0
 21 11  1  0  0  0
 21 15  1  0  0  0
  1  3  2  0  0  0
  2  4  2  0  0  0
  5 11  2  0  0  0
  6  8  2  0  0  0
  7 10  2  0  0  0
  9 12  2  0  0  0
 13 17  2  0  0  0
 21 18  2  0  0  0
 21 19  2  0  0  0
M  CHG  1  16  -1
M  END
> <rmsd>
0.378490448

$$$$
ZINC01058448


 22 23  0  0  0  0  0  0  0  0999 V2000
   -3.2239   -3.1339   -0.6933 C   0  0  0  0  0
   -3.5197   -2.5648    0.5453 C   0  0  0  0  0
   -2.7803   -2.3290   -1.7427 C   0  0  0  0  0
   -3.3719   -1.1907    0.7346 C   0  0  0  0  0
   -2.6325   -0.9550   -1.5534 C   0  0  0  0  0
    1.9502    1.5835   -2.4413 C   0  0  0  0  0
    0.0312    2.5829   -1.3663 C   0  0  0  0  0
    1.8561    0.4845   -1.5878 C   0  0  0  0  0
   -0.0630    1.4837   -0.5127 C   0  0  0  0  0
    1.0378    2.6328   -2.3306 C   0  0  0  0  0
   -2.9283   -0.3859   -0.3147 C   0  0  0  0  0
    0.8495    0.4344   -0.6234 C   0  0  0  0  0
    2.8421   -0.6032   -1.7403 C   0  0  0  0  0
    2.1812    3.6911   -4.1275 C   0  0  0  0  0
   -1.1096    1.4687    0.4639 N   0  0  0  0  0
    3.9353   -0.5422   -1.0658 O   0  0  0  0  0
    2.5717   -1.5714   -2.5420 O   0  0  0  0  0
   -3.6216    1.7288    1.0170 O   0  0  0  0  0
   -2.8836    2.0006   -1.3664 O   0  0  0  0  0
    1.1289    3.7050   -3.1640 O   0  0  0  0  0
   -2.7404    1.3576   -0.0744 S   0  0  0  0  0
    0.7315   -0.9318    0.4377 Cl  0  0  0  0  0
  1  2  1  0  0  0
  3  5  1  0  0  0
  4 11  1  0  0  0
  6 10  1  0  0  0
  7  9  1  0  0  0
  8 12  1  0  0  0
  8 13  1  0  0  0
  9 15  1  0  0  0
 10 20  1  0  0  0
 12 22  1  0  0  0
 13 16  1  0  0  0
 14 20  1  0  0  0
 21 11  1  0  0  0
 21 15  1  0  0  0
  1  3  2  0  0  0
  2  4  2  0  0  0
  5 11  2  0  0  0
  6  8  2  0  0  0
  7 10  2  0  0  0
  9 12  2  0  0  0
 13 17  2  0  0  0
 21 18  2  0  0  0
 21 19  2  0  0  0
M  CHG  1  16  -1
M  END
> <rmsd>
0.547110379

$$$$
ZINC47318066


 22 23  0  0  0  0  0  0  0  0999 V2000
   -0.0405    2.7715   -1.2921 C   0  0  0  0  0
   -3.2405   -2.5885    0.4310 C   0  0  0  0  0
   -2.4202   -2.2365   -1.8140 C   0  0  0  0  0
   -3.2035   -1.2131    0.6602 C   0  0  0  0  0
   -2.3833   -0.8610   -1.5849 C   0  0  0  0  0
    1.0177    2.8905   -2.1929 C   0  0  0  0  0
    0.9962    0.8114   -0.3328 C   0  0  0  0  0
    2.0546    0.9304   -1.2336 C   0  0  0  0  0
   -0.0513    1.7320   -0.3621 C   0  0  0  0  0
   -2.8488   -3.1002   -0.8061 C   0  0  0  0  0
   -2.7750   -0.3493   -0.3478 C   0  0  0  0  0
    2.0653    1.9699   -2.1637 C   0  0  0  0  0
    3.1441   -0.0627   -1.1722 C   0  0  0  0  0
   -3.3339   -5.2676    0.0440 C   0  0  0  0  0
   -1.1349    1.6105    0.5597 N   0  0  0  0  0
    3.0453   -1.1304   -1.8824 O   0  0  0  0  0
    4.1527    0.1754   -0.4105 O   0  0  0  0  0
   -3.6851    1.6713    0.9993 O   0  0  0  0  0
   -2.8598    2.0619   -1.3386 O   0  0  0  0  0
   -2.8850   -4.4421   -1.0298 O   0  0  0  0  0
   -2.7291    1.3959   -0.0569 S   0  0  0  0  0
    3.3564    2.1531   -3.2957 Cl  0  0  0  0  0
  1  9  1  0  0  0
  2 10  1  0  0  0
  3  5  1  0  0  0
  4 11  1  0  0  0
  6 12  1  0  0  0
  7  8  1  0  0  0
  8 13  1  0  0  0
  9 15  1  0  0  0
 10 20  1  0  0  0
 12 22  1  0  0  0
 13 16  1  0  0  0
 14 20  1  0  0  0
 21 11  1  0  0  0
 21 15  1  0  0  0
  1  6  2  0  0  0
  2  4  2  0  0  0
  3 10  2  0  0  0
  5 11  2  0  0  0
  7  9  2  0  0  0
  8 12  2  0  0  0
 13 17  2  0  0  0
 21 18  2  0  0  0
 21 19  2  0  0  0
M  CHG  1  16  -1
M  END
> <rmsd>
0.710080385

$$$$
ZINC47318066


 22 23  0  0  0  0  0  0  0  0999 V2000
   -0.1091    2.5057   -1.5763 C   0  0  0  0  0
   -3.5366   -2.5663    0.5371 C   0  0  0  0  0
   -2.9068   -2.3054   -1.7807 C   0  0  0  0  0
   -3.3721   -1.1956    0.7361 C   0  0  0  0  0
   -2.7424   -0.9346   -1.5817 C   0  0  0  0  0
    0.8655    2.5308   -2.5736 C   0  0  0  0  0
    0.8591    0.4812   -0.6811 C   0  0  0  0  0
    1.8338    0.5064   -1.6785 C   0  0  0  0  0
   -0.1124    1.4809   -0.6299 C   0  0  0  0  0
   -3.3038   -3.1212   -0.7213 C   0  0  0  0  0
   -2.9752   -0.3796   -0.3233 C   0  0  0  0  0
    1.8370    1.5312   -2.6248 C   0  0  0  0  0
    2.8444   -0.5685   -1.7002 C   0  0  0  0  0
   -3.8725   -5.2340    0.2107 C   0  0  0  0  0
   -1.1105    1.4554    0.3908 N   0  0  0  0  0
    2.5969   -1.6332   -2.3781 O   0  0  0  0  0
    3.9356   -0.4018   -1.0403 O   0  0  0  0  0
   -3.5956    1.7215    1.0646 O   0  0  0  0  0
   -2.9666    2.0194   -1.3469 O   0  0  0  0  0
   -3.4645   -4.4586   -0.9155 O   0  0  0  0  0
   -2.7674    1.3597   -0.0707 S   0  0  0  0  0
    3.0260    1.5995   -3.8753 Cl  0  0  0  0  0
  1  9  1  0  0  0
  2 10  1  0  0  0
  3  5  1  0  0  0
  4 11  1  0  0  0
  6 12  1  0  0  0
  7  8  1  0  0  0
  8 13  1  0  0  0
  9 15  1  0  0  0
 10 20  1  0  0  0
 12 22  1  0  0  0
 13 16  1  0  0  0
 14 20  1  0  0  0
 21 11  1  0  0  0
 21 15  1  0  0  0
  1  6  2  0  0  0
  2  4  2  0  0  0
  3 10  2  0  0  0
  5 11  2  0  0  0
  7  9  2  0  0  0
  8 12  2  0  0  0
 13 17  2  0  0  0
 21 18  2  0  0  0
 21 19  2  0  0  0
M  CHG  1  16  -1
M  END
> <rmsd>
0.529141843

$$$$
ZINC32585671


 22 23  0  0  0  0  0  0  0  0999 V2000
    0.8787    2.5110   -2.5631 C   0  0  0  0  0
    1.8473    1.5084   -2.6074 C   0  0  0  0  0
   -0.1000    2.4920   -1.5691 C   0  0  0  0  0
   -3.5510   -2.5639    0.5460 C   0  0  0  0  0
   -3.3821   -1.1933    0.7416 C   0  0  0  0  0
    0.8586    0.4675   -0.6642 C   0  0  0  0  0
   -2.7442   -0.9412   -1.5751 C   0  0  0  0  0
    1.8373    0.4865   -1.6580 C   0  0  0  0  0
   -0.1100    1.4702   -0.6198 C   0  0  0  0  0
   -3.3162   -3.1233   -0.7102 C   0  0  0  0  0
   -2.9789   -0.3819   -0.3189 C   0  0  0  0  0
   -2.9129   -2.3120   -1.7707 C   0  0  0  0  0
    2.8597   -0.5714   -1.7055 C   0  0  0  0  0
   -4.7866   -4.9089   -1.2629 C   0  0  0  0  0
   -1.1120    1.4503    0.3969 N   0  0  0  0  0
    2.8287   -1.5033   -0.8173 O   0  0  0  0  0
    3.7515   -0.5300   -2.6336 O   0  0  0  0  0
   -3.5992    1.7252    1.0601 O   0  0  0  0  0
   -2.9599    2.0140   -1.3497 O   0  0  0  0  0
   -3.4889   -4.4656   -0.8722 O   0  0  0  0  0
   -2.7675    1.3578   -0.0708 S   0  0  0  0  0
   -2.6154   -2.9769   -3.3344 Cl  0  0  0  0  0
  1  2  1  0  0  0
  3  9  1  0  0  0
  4 10  1  0  0  0
  5 11  1  0  0  0
  6  8  1  0  0  0
  7 12  1  0  0  0
  8 13  1  0  0  0
  9 15  1  0  0  0
 10 20  1  0  0  0
 12 22  1  0  0  0
 13 16  1  0  0  0
 14 20  1  0  0  0
 21 11  1  0  0  0
 21 15  1  0  0  0
  1  3  2  0  0  0
  2  8  2  0  0  0
  4  5  2  0  0  0
  6  9  2  0  0  0
  7 11  2  0  0  0
 10 12  2  0  0  0
 13 17  2  0  0  0
 21 18  2  0  0  0
 21 19  2  0  0  0
M  CHG  1  16  -1
M  END
> <rmsd>
0.518870771

$$$$
ZINC47318117


 22 23  0  0  0  0  0  0  0  0999 V2000
   -2.8658   -3.1012   -0.7872 C   0  0  0  0  0
   -3.2539   -2.5745    0.4446 C   0  0  0  0  0
   -0.0348    2.7753   -1.2849 C   0  0  0  0  0
   -2.4316   -2.2506   -1.8039 C   0  0  0  0  0
   -3.2079   -1.1971    0.6599 C   0  0  0  0  0
    1.0251    2.8966   -2.1834 C   0  0  0  0  0
    0.9985    0.8107   -0.3311 C   0  0  0  0  0
    2.0585    0.9321   -1.2296 C   0  0  0  0  0
   -0.0481    1.7324   -0.3587 C   0  0  0  0  0
   -2.3857   -0.8732   -1.5887 C   0  0  0  0  0
   -2.7738   -0.3464   -0.3568 C   0  0  0  0  0
    2.0718    1.9750   -2.1559 C   0  0  0  0  0
    3.1470   -0.0623   -1.1701 C   0  0  0  0  0
   -1.5818   -0.6893   -3.8193 C   0  0  0  0  0
   -1.1334    1.6085    0.5607 N   0  0  0  0  0
    3.0484   -1.1273   -1.8845 O   0  0  0  0  0
    4.1545    0.1720   -0.4058 O   0  0  0  0  0
   -3.6843    1.6700    0.9962 O   0  0  0  0  0
   -2.8547    2.0686   -1.3388 O   0  0  0  0  0
   -1.9580   -0.0608   -2.5959 O   0  0  0  0  0
   -2.7267    1.3976   -0.0594 S   0  0  0  0  0
    3.3650    2.1612   -3.2849 Cl  0  0  0  0  0
  1  2  1  0  0  0
  3  9  1  0  0  0
  4 10  1  0  0  0
  5 11  1  0  0  0
  6 12  1  0  0  0
  7  8  1  0  0  0
  8 13  1  0  0  0
  9 15  1  0  0  0
 10 20  1  0  0  0
 12 22  1  0  0  0
 13 16  1  0  0  0
 14 20  1  0  0  0
 21 11  1  0  0  0
 21 15  1  0  0  0
  1  4  2  0  0  0
  2  5  2  0  0  0
  3  6  2  0  0  0
  7  9  2  0  0  0
  8 12  2  0  0  0
 10 11  2  0  0  0
 13 17  2  0  0  0
 21 18  2  0  0  0
 21 19  2  0  0  0
M  CHG  1  16  -1
M  END
> <rmsd>
0.704252362

$$$$
ZINC47318117


 22 23  0  0  0  0  0  0  0  0999 V2000
   -3.3182   -3.1203   -0.7025 C   0  0  0  0  0
   -3.5465   -2.5513    0.5503 C   0  0  0  0  0
   -0.1034    2.5108   -1.5699 C   0  0  0  0  0
   -2.9180   -2.3175   -1.7707 C   0  0  0  0  0
   -3.3745   -1.1795    0.7351 C   0  0  0  0  0
    0.8729    2.5389   -2.5656 C   0  0  0  0  0
    0.8613    0.4819   -0.6811 C   0  0  0  0  0
    1.8377    0.5100   -1.6768 C   0  0  0  0  0
   -0.1093    1.4823   -0.6277 C   0  0  0  0  0
   -2.7461   -0.9457   -1.5860 C   0  0  0  0  0
   -2.9744   -0.3766   -0.3331 C   0  0  0  0  0
    1.8435    1.5385   -2.6191 C   0  0  0  0  0
    2.8473   -0.5658   -1.7010 C   0  0  0  0  0
   -2.1451   -0.8497   -3.8850 C   0  0  0  0  0
   -1.1091    1.4538    0.3913 N   0  0  0  0  0
    2.5999   -1.6275   -2.3834 O   0  0  0  0  0
    3.9375   -0.4027   -1.0386 O   0  0  0  0  0
   -3.5951    1.7197    1.0620 O   0  0  0  0  0
   -2.9617    2.0264   -1.3472 O   0  0  0  0  0
   -2.3544   -0.1803   -2.6435 O   0  0  0  0  0
   -2.7654    1.3616   -0.0733 S   0  0  0  0  0
    3.0346    1.6105   -3.8672 Cl  0  0  0  0  0
  1  2  1  0  0  0
  3  9  1  0  0  0
  4 10  1  0  0  0
  5 11  1  0  0  0
  6 12  1  0  0  0
  7  8  1  0  0  0
  8 13  1  0  0  0
  9 15  1  0  0  0
 10 20  1  0  0  0
 12 22  1  0  0  0
 13 16  1  0  0  0
 14 20  1  0  0  0
 21 11  1  0  0  0
 21 15  1  0  0  0
  1  4  2  0  0  0
  2  5  2  0  0  0
  3  6  2  0  0  0
  7  9  2  0  0  0
  8 12  2  0  0  0
 10 11  2  0  0  0
 13 17  2  0  0  0
 21 18  2  0  0  0
 21 19  2  0  0  0
M  CHG  1  16  -1
M  END
> <rmsd>
0.524073005

$$$$
ZINC23371171


 24 26  0  0  0  0  0  0  0  0999 V2000
   -2.8108   -0.2195   -3.4814 C   0  0  0  0  0
   -3.1504   -1.4946   -3.0386 C   0  0  0  0  0
    1.6351    1.7827   -1.7021 C   0  0  0  0  0
    1.6958   -0.4204   -0.7123 C   0  0  0  0  0
    0.5138    2.0969   -0.9342 C   0  0  0  0  0
    0.5745   -0.1062    0.0557 C   0  0  0  0  0
   -2.6551    0.8079   -2.5593 C   0  0  0  0  0
   -3.6776   -3.0195   -1.1952 C   0  0  0  0  0
   -3.6792   -2.1577    1.0089 C   0  0  0  0  0
   -3.3355   -1.7456   -1.6684 C   0  0  0  0  0
    2.2261    0.5241   -1.5912 C   0  0  0  0  0
   -3.8536   -3.2351    0.1641 C   0  0  0  0  0
   -3.1792   -0.7072   -0.7265 C   0  0  0  0  0
   -0.0164    1.1524   -0.0553 C   0  0  0  0  0
   -2.8392    0.5582   -1.1970 C   0  0  0  0  0
    3.4097    0.1927   -2.4010 C   0  0  0  0  0
   -4.2177   -4.5770    0.6907 C   0  0  0  0  0
   -3.3493   -0.9133    0.5933 N   0  0  0  0  0
   -1.1734    1.4757    0.7353 N   0  0  0  0  0
    3.9362   -0.9763   -2.2793 O   0  0  0  0  0
    3.8801    1.0827   -3.2042 O   0  0  0  0  0
   -3.7226    1.8463    0.8733 O   0  0  0  0  0
   -2.4206    3.1105   -0.8604 O   0  0  0  0  0
   -2.6270    1.8981   -0.0833 S   0  0  0  0  0
  1  7  1  0  0  0
  2 10  1  0  0  0
  3 11  1  0  0  0
  4  6  1  0  0  0
  5 14  1  0  0  0
  8 12  1  0  0  0
  9 18  1  0  0  0
 10 13  1  0  0  0
 11 16  1  0  0  0
 13 15  1  0  0  0
 14 19  1  0  0  0
 16 20  1  0  0  0
 17 12  1  0  0  0
 24 15  1  0  0  0
 24 19  1  0  0  0
  1  2  2  0  0  0
  3  5  2  0  0  0
  4 11  2  0  0  0
  6 14  2  0  0  0
  7 15  2  0  0  0
  8 10  2  0  0  0
  9 12  2  0  0  0
 13 18  2  0  0  0
 16 21  2  0  0  0
 24 22  2  0  0  0
 24 23  2  0  0  0
M  CHG  1  20  -1
M  END
> <rmsd>
0.44064346

$$$$
ZINC78870084


 24 26  0  0  0  0  0  0  0  0999 V2000
   -3.9474    0.4103   -3.4850 C   0  0  0  0  0
    0.7056    2.5758   -2.8085 C   0  0  0  0  0
   -4.0656   -0.9531   -3.2158 C   0  0  0  0  0
    1.3770    1.3866   -3.0920 C   0  0  0  0  0
   -0.1353    2.6544   -1.6982 C   0  0  0  0  0
   -3.5668    1.2903   -2.4747 C   0  0  0  0  0
   -3.1586   -1.0700    0.3756 C   0  0  0  0  0
    0.3669    0.3544   -1.1552 C   0  0  0  0  0
   -3.2933   -2.4346    0.5809 C   0  0  0  0  0
   -3.9048   -2.8006   -1.6024 C   0  0  0  0  0
   -3.8022   -1.4464   -1.9271 C   0  0  0  0  0
   -3.4166   -0.5586   -0.9016 C   0  0  0  0  0
    1.2077    0.2759   -2.2655 C   0  0  0  0  0
   -0.3045    1.5437   -0.8716 C   0  0  0  0  0
   -3.3025    0.8110   -1.1904 C   0  0  0  0  0
    3.2818   -1.0010   -1.8653 C   0  0  0  0  0
    1.9254   -0.9956   -2.5693 C   0  0  0  0  0
   -3.6600   -3.3138   -0.3757 N   0  0  0  0  0
   -1.1708    1.6255    0.2735 N   0  0  0  0  0
    3.2329   -0.9539   -0.6036 O   0  0  0  0  0
    4.2853   -1.0441   -2.6320 O   0  0  0  0  0
   -3.5640    1.6944    1.2339 O   0  0  0  0  0
   -2.9525    3.3217   -0.5764 O   0  0  0  0  0
   -2.8302    1.9989    0.0151 S   0  0  0  0  0
  1  3  1  0  0  0
  2  4  1  0  0  0
  5 14  1  0  0  0
  6 15  1  0  0  0
  7 12  1  0  0  0
  8 13  1  0  0  0
  9 18  1  0  0  0
 10 11  1  0  0  0
 11 12  1  0  0  0
 14 19  1  0  0  0
 16 20  1  0  0  0
 17 13  1  0  0  0
 17 16  1  0  0  0
 24 15  1  0  0  0
 24 19  1  0  0  0
  1  6  2  0  0  0
  2  5  2  0  0  0
  3 11  2  0  0  0
  4 13  2  0  0  0
  7  9  2  0  0  0
  8 14  2  0  0  0
 10 18  2  0  0  0
 12 15  2  0  0  0
 16 21  2  0  0  0
 24 22  2  0  0  0
 24 23  2  0  0  0
M  CHG  1  20  -1
M  END
> <rmsd>
0.47880429

$$$$
ZINC47383446


 23 24  0  0  0  0  0  0  0  0999 V2000
   -3.4655   -2.5746    0.5162 C   0  0  0  0  0
   -2.7628   -2.3058   -1.7797 C   0  0  0  0  0
   -3.3312   -1.2011    0.7181 C   0  0  0  0  0
   -2.6286   -0.9322   -1.5778 C   0  0  0  0  0
    0.8314    0.4728   -0.6470 C   0  0  0  0  0
    1.0377    2.6613   -2.3647 C   0  0  0  0  0
    1.8396    0.5108   -1.6103 C   0  0  0  0  0
   -0.0736    1.5291   -0.5427 C   0  0  0  0  0
   -3.1812   -3.1270   -0.7327 C   0  0  0  0  0
    1.9428    1.6050   -2.4690 C   0  0  0  0  0
    0.0295    2.6233   -1.4015 C   0  0  0  0  0
   -2.9128   -0.3798   -0.3289 C   0  0  0  0  0
    2.7933   -0.6054   -1.7178 C   0  0  0  0  0
   -3.7448   -5.2481    0.1834 C   0  0  0  0  0
   -1.1048    1.4878    0.4440 N   0  0  0  0  0
    2.6740   -1.6023   -0.9114 O   0  0  0  0  0
    3.7158   -0.5478   -2.6146 O   0  0  0  0  0
   -3.6153    1.7121    1.0336 O   0  0  0  0  0
   -2.9109    2.0177   -1.3559 O   0  0  0  0  0
   -3.3124   -4.4673   -0.9298 O   0  0  0  0  0
    2.9079    1.6519   -3.3982 F   0  0  0  0  0
   -0.8349    3.6437   -1.3098 F   0  0  0  0  0
   -2.7435    1.3633   -0.0726 S   0  0  0  0  0
  1  9  1  0  0  0
  2  4  1  0  0  0
  3 12  1  0  0  0
  5  8  1  0  0  0
  6 11  1  0  0  0
  7 10  1  0  0  0
  7 13  1  0  0  0
  8 15  1  0  0  0
  9 20  1  0  0  0
 10 21  1  0  0  0
 11 22  1  0  0  0
 13 16  1  0  0  0
 14 20  1  0  0  0
 23 12  1  0  0  0
 23 15  1  0  0  0
  1  3  2  0  0  0
  2  9  2  0  0  0
  4 12  2  0  0  0
  5  7  2  0  0  0
  6 10  2  0  0  0
  8 11  2  0  0  0
 13 17  2  0  0  0
 23 18  2  0  0  0
 23 19  2  0  0  0
M  CHG  1  16  -1
M  END
> <rmsd>
0.577619672

$$$$
ZINC00525220


 25 26  0  0  0  0  0  0  0  0999 V2000
    1.5331   -0.9070    1.4096 C   0  0  0  0  0
   -5.6680   -2.2710   -0.2159 C   0  0  0  0  0
   -3.2863   -2.6753   -0.1985 C   0  0  0  0  0
    2.3836   -0.9772    0.3063 C   0  0  0  0  0
   -5.4409   -0.9494   -0.6002 C   0  0  0  0  0
   -3.0590   -1.3539   -0.5828 C   0  0  0  0  0
    1.1864    0.8462   -0.7325 C   0  0  0  0  0
   -4.5907   -3.1339   -0.0150 C   0  0  0  0  0
    0.5092    0.0398    1.4419 C   0  0  0  0  0
    0.3360    0.9164    0.3708 C   0  0  0  0  0
    2.2102   -0.1007   -0.7647 C   0  0  0  0  0
   -4.1364   -0.4909   -0.7836 C   0  0  0  0  0
   -0.9971    2.8196   -0.6004 C   0  0  0  0  0
   -3.7722    1.6968   -0.0851 C   0  0  0  0  0
   -4.8337   -4.5467    0.3956 C   0  0  0  0  0
   -0.3878    0.0912    2.6359 C   0  0  0  0  0
   -2.1917    3.6701   -0.1830 C   0  0  0  0  0
   -3.5326    3.0911   -0.6260 C   0  0  0  0  0
   -0.6978    1.8829    0.3850 N   0  0  0  0  0
    3.0758   -0.1726   -1.8880 N   0  0  0  0  0
    3.9900   -1.0320   -1.8971 O   0  0  0  0  0
   -0.4189    2.9860   -1.6692 O   0  0  0  0  0
   -3.8339    1.3952    1.0992 O   0  0  0  0  0
    2.9027    0.6249   -2.8412 O   0  0  0  0  0
   -3.9101    0.8324   -1.1695 O   0  0  0  0  0
  1  9  1  0  0  0
  2  8  1  0  0  0
  3  6  1  0  0  0
  4 11  1  0  0  0
  5 12  1  0  0  0
  7 10  1  0  0  0
 10 19  1  0  0  0
 11 20  1  0  0  0
 12 25  1  0  0  0
 13 19  1  0  0  0
 14 25  1  0  0  0
 15  8  1  0  0  0
 16  9  1  0  0  0
 17 13  1  0  0  0
 17 18  1  0  0  0
 18 14  1  0  0  0
 20 21  1  0  0  0
  1  4  2  0  0  0
  2  5  2  0  0  0
  3  8  2  0  0  0
  6 12  2  0  0  0
  7 11  2  0  0  0
  9 10  2  0  0  0
 13 22  2  0  0  0
 14 23  2  0  0  0
 20 24  2  0  0  0
M  CHG  2  20   1  21  -1
M  END
> <rmsd>
0.542127907

$$$$
ZINC01059093


 24 26  0  0  0  0  0  0  0  0999 V2000
   -2.9556    0.1159   -3.5875 C   0  0  0  0  0
    1.4051    2.4391   -1.9911 C   0  0  0  0  0
   -3.1268   -1.2187   -3.2311 C   0  0  0  0  0
   -3.3387   -2.9295   -1.4905 C   0  0  0  0  0
    0.3271    2.5701   -1.1158 C   0  0  0  0  0
    2.1280    1.2469   -2.0337 C   0  0  0  0  0
   -2.8244    1.0793   -2.5951 C   0  0  0  0  0
   -3.3746   -3.2674   -0.1453 C   0  0  0  0  0
    0.6949    0.3169   -0.3255 C   0  0  0  0  0
   -3.1673   -1.5935   -1.8773 C   0  0  0  0  0
   -3.0350   -0.6206   -0.8645 C   0  0  0  0  0
   -0.0280    1.5090   -0.2829 C   0  0  0  0  0
    1.7729    0.1859   -1.2010 C   0  0  0  0  0
   -2.8648    0.7065   -1.2493 C   0  0  0  0  0
   -3.2366   -2.2464    0.7730 C   0  0  0  0  0
   -3.2690   -2.5631    2.2310 C   0  0  0  0  0
   -3.0695   -0.9455    0.4418 N   0  0  0  0  0
   -1.1393    1.6446    0.6198 N   0  0  0  0  0
    2.5085   -1.0278   -1.2456 N   0  0  0  0  0
    3.4741   -1.1248   -2.0411 O   0  0  0  0  0
    2.1734   -1.9704   -0.4880 O   0  0  0  0  0
   -3.6914    1.7286    0.9862 O   0  0  0  0  0
   -2.6766    3.2552   -0.7282 O   0  0  0  0  0
   -2.6929    1.9711   -0.0444 S   0  0  0  0  0
  1  7  1  0  0  0
  2  6  1  0  0  0
  3 10  1  0  0  0
  4 10  1  0  0  0
  5 12  1  0  0  0
  8 15  1  0  0  0
  9 13  1  0  0  0
 11 14  1  0  0  0
 11 17  1  0  0  0
 12 18  1  0  0  0
 13 19  1  0  0  0
 16 15  1  0  0  0
 19 20  1  0  0  0
 24 14  1  0  0  0
 24 18  1  0  0  0
  1  3  2  0  0  0
  2  5  2  0  0  0
  4  8  2  0  0  0
  6 13  2  0  0  0
  7 14  2  0  0  0
  9 12  2  0  0  0
 10 11  2  0  0  0
 15 17  2  0  0  0
 19 21  2  0  0  0
 24 22  2  0  0  0
 24 23  2  0  0  0
M  CHG  2  19   1  20  -1
M  END
> <rmsd>
0.512165487

$$$$
ZINC00236104


 21 22  0  0  0  0  0  0  0  0999 V2000
    0.8958    2.5326   -2.5418 C   0  0  0  0  0
    1.8619    1.5278   -2.5921 C   0  0  0  0  0
   -0.0870    2.5064   -1.5522 C   0  0  0  0  0
   -3.3425   -3.1185   -0.6693 C   0  0  0  0  0
   -2.9315   -2.3361   -1.7484 C   0  0  0  0  0
    0.8625    0.4703   -0.6634 C   0  0  0  0  0
   -3.3897   -1.1543    0.7368 C   0  0  0  0  0
    1.8453    0.4967   -1.6530 C   0  0  0  0  0
   -0.1036    1.4752   -0.6131 C   0  0  0  0  0
   -2.9787   -0.3719   -0.3424 C   0  0  0  0  0
   -3.5717   -2.5275    0.5733 C   0  0  0  0  0
   -2.7496   -0.9629   -1.5850 C   0  0  0  0  0
    2.8650   -0.5636   -1.7068 C   0  0  0  0  0
   -1.1099    1.4480    0.3992 N   0  0  0  0  0
    2.8278   -1.5042   -0.8280 O   0  0  0  0  0
    3.7608   -0.5154   -2.6308 O   0  0  0  0  0
   -3.5990    1.7230    1.0549 O   0  0  0  0  0
   -2.9490    2.0341   -1.3493 O   0  0  0  0  0
   -2.7637    1.3646   -0.0761 S   0  0  0  0  0
   -4.0793   -3.4934    1.9041 Cl  0  0  0  0  0
   -2.2394   -0.0399   -2.9527 Cl  0  0  0  0  0
  1  2  1  0  0  0
  3  9  1  0  0  0
  4 11  1  0  0  0
  5 12  1  0  0  0
  6  8  1  0  0  0
  7 10  1  0  0  0
  8 13  1  0  0  0
  9 14  1  0  0  0
 11 20  1  0  0  0
 12 21  1  0  0  0
 13 15  1  0  0  0
 19 10  1  0  0  0
 19 14  1  0  0  0
  1  3  2  0  0  0
  2  8  2  0  0  0
  4  5  2  0  0  0
  6  9  2  0  0  0
  7 11  2  0  0  0
 10 12  2  0  0  0
 13 16  2  0  0  0
 19 17  2  0  0  0
 19 18  2  0  0  0
M  CHG  1  15  -1
M  END
> <rmsd>
0.50876838

$$$$
ZINC05799384


 25 26  0  0  0  0  0  0  0  0999 V2000
    2.4345    0.6302    0.6282 C   0  0  0  0  0
    1.6354   -0.1781   -1.5037 C   0  0  0  0  0
    1.1454    1.0538    0.9509 C   0  0  0  0  0
    0.3461    0.2455   -1.1810 C   0  0  0  0  0
   -3.7713   -2.9199   -0.2641 C   0  0  0  0  0
   -3.8718   -2.2332   -1.4741 C   0  0  0  0  0
   -2.7409   -0.9838    0.7492 C   0  0  0  0  0
    2.6796    0.0143   -0.5991 C   0  0  0  0  0
   -2.8413   -0.2971   -0.4607 C   0  0  0  0  0
    0.1011    0.8614    0.0463 C   0  0  0  0  0
   -3.2058   -2.2952    0.8475 C   0  0  0  0  0
   -3.4068   -0.9218   -1.5723 C   0  0  0  0  0
    4.0394   -0.4333   -0.9397 C   0  0  0  0  0
   -3.3943    2.1607   -0.1627 C   0  0  0  0  0
   -2.3169    1.1267   -0.5087 C   0  0  0  0  0
   -1.2022    1.2911    0.3720 N   0  0  0  0  0
   -3.1054   -2.9943    2.0794 N   0  0  0  0  0
   -3.9220    1.8783    1.1763 N   0  0  0  0  0
   -3.5084   -0.3083   -2.6945 O   0  0  0  0  0
    4.2386   -0.9995   -2.0793 O   0  0  0  0  0
   -3.5313   -4.1727    2.1463 O   0  0  0  0  0
   -4.9072    1.1207    1.2688 O   0  0  0  0  0
    4.9861   -0.2446   -0.0870 O   0  0  0  0  0
   -2.5932   -2.4147    3.0675 O   0  0  0  0  0
   -3.3435    2.3985    2.1501 O   0  0  0  0  0
  1  3  1  0  0  0
  2  8  1  0  0  0
  4 10  1  0  0  0
  5 11  1  0  0  0
  6 12  1  0  0  0
  7  9  1  0  0  0
  8 13  1  0  0  0
 10 16  1  0  0  0
 11 17  1  0  0  0
 12 19  1  0  0  0
 13 20  1  0  0  0
 14 15  1  0  0  0
 14 18  1  0  0  0
 15  9  1  0  0  0
 15 16  1  0  0  0
 17 21  1  0  0  0
 18 22  1  0  0  0
  1  8  2  0  0  0
  2  4  2  0  0  0
  3 10  2  0  0  0
  5  6  2  0  0  0
  7 11  2  0  0  0
  9 12  2  0  0  0
 13 23  2  0  0  0
 17 24  2  0  0  0
 18 25  2  0  0  0
M  CHG  6  17   1  18   1  19  -1  20  -1  21  -1  22  -1
M  END
> <rmsd>
0.476807445

$$$$
ZINC24578624


 24 26  0  0  0  0  0  0  0  0999 V2000
   -3.7090   -2.3121    1.0229 C   0  0  0  0  0
   -3.3735   -1.0270    0.6215 C   0  0  0  0  0
    1.6265    1.7770   -1.7166 C   0  0  0  0  0
    1.6940   -0.4153   -0.7036 C   0  0  0  0  0
    0.5086    2.0983   -0.9468 C   0  0  0  0  0
    0.5762   -0.0940    0.0663 C   0  0  0  0  0
   -2.8200   -0.2190   -3.4523 C   0  0  0  0  0
   -2.6627    0.8093   -2.5314 C   0  0  0  0  0
   -3.8448   -3.2723    0.0408 C   0  0  0  0  0
   -3.1847   -0.7395   -0.7370 C   0  0  0  0  0
    2.2192    0.5202   -1.5951 C   0  0  0  0  0
   -3.3458   -1.7886   -1.6664 C   0  0  0  0  0
   -0.0165    1.1629   -0.0553 C   0  0  0  0  0
   -3.1583   -1.5023   -3.0158 C   0  0  0  0  0
   -2.8443    0.5513   -1.1757 C   0  0  0  0  0
    3.3994    0.1813   -2.4069 C   0  0  0  0  0
   -3.6715   -3.0365   -1.2799 N   0  0  0  0  0
   -1.1701    1.4935    0.7374 N   0  0  0  0  0
    3.9276   -0.9858   -2.2752 O   0  0  0  0  0
    3.8650    1.0632   -3.2217 O   0  0  0  0  0
   -3.7190    1.8626    0.8837 O   0  0  0  0  0
   -2.4272    3.1080   -0.8713 O   0  0  0  0  0
   -3.3030   -2.4761   -3.9277 F   0  0  0  0  0
   -2.6280    1.9057   -0.0779 S   0  0  0  0  0
  1  2  1  0  0  0
  3 11  1  0  0  0
  4  6  1  0  0  0
  5 13  1  0  0  0
  7  8  1  0  0  0
  9 17  1  0  0  0
 10 12  1  0  0  0
 10 15  1  0  0  0
 11 16  1  0  0  0
 12 14  1  0  0  0
 13 18  1  0  0  0
 14 23  1  0  0  0
 16 19  1  0  0  0
 24 15  1  0  0  0
 24 18  1  0  0  0
  1  9  2  0  0  0
  2 10  2  0  0  0
  3  5  2  0  0  0
  4 11  2  0  0  0
  6 13  2  0  0  0
  7 14  2  0  0  0
  8 15  2  0  0  0
 12 17  2  0  0  0
 16 20  2  0  0  0
 24 21  2  0  0  0
 24 22  2  0  0  0
M  CHG  1  19  -1
M  END
> <rmsd>
0.465904355

$$$$
ZINC04635883


 24 25  0  0  0  0  0  0  0  0999 V2000
    0.8401    2.4644   -2.6176 C   0  0  0  0  0
    1.8180    1.4703   -2.6481 C   0  0  0  0  0
   -3.5503   -2.5643    0.5411 C   0  0  0  0  0
   -2.9115   -2.3096   -1.7749 C   0  0  0  0  0
   -0.1284    2.4596   -1.6137 C   0  0  0  0  0
   -3.3829   -1.1936    0.7381 C   0  0  0  0  0
   -2.7441   -0.9389   -1.5781 C   0  0  0  0  0
    0.8589    0.4663   -0.6708 C   0  0  0  0  0
   -3.3145   -3.1223   -0.7154 C   0  0  0  0  0
    1.8274    0.4712   -1.6747 C   0  0  0  0  0
   -0.1190    1.4605   -0.6403 C   0  0  0  0  0
   -2.9799   -0.3808   -0.3215 C   0  0  0  0  0
   -3.4897   -4.5516   -0.9209 C   0  0  0  0  0
   -4.2194   -5.3701   -0.1302 C   0  0  0  0  0
    2.8596   -0.5778   -1.7076 C   0  0  0  0  0
   -4.3470   -6.8757   -0.4076 C   0  0  0  0  0
   -1.1179    1.4552    0.3943 N   0  0  0  0  0
    2.8465   -1.4886   -0.7973 O   0  0  0  0  0
   -3.7119   -7.2654   -1.4318 O   0  0  0  0  0
    3.7418   -0.5499   -2.6454 O   0  0  0  0  0
   -5.0511   -7.5504    0.3945 O   0  0  0  0  0
   -3.5947    1.7239    1.0633 O   0  0  0  0  0
   -2.9672    2.0164   -1.3492 O   0  0  0  0  0
   -2.7711    1.3350   -0.0754 S   0  0  0  0  0
  1  2  1  0  0  0
  3  9  1  0  0  0
  4  7  1  0  0  0
  5 11  1  0  0  0
  6 12  1  0  0  0
  8 10  1  0  0  0
  9 13  1  0  0  0
 10 15  1  0  0  0
 11 17  1  0  0  0
 14 16  1  0  0  0
 15 18  1  0  0  0
 16 19  1  0  0  0
 24 12  1  0  0  0
 24 17  1  0  0  0
  1  5  2  0  0  0
  2 10  2  0  0  0
  3  6  2  0  0  0
  4  9  2  0  0  0
  7 12  2  0  0  0
  8 11  2  0  0  0
 13 14  2  0  0  0
 15 20  2  0  0  0
 16 21  2  0  0  0
 24 22  2  0  0  0
 24 23  2  0  0  0
M  CHG  2  18  -1  19  -1
M  END
> <rmsd>
0.521101892

$$$$
ZINC00074714


 23 24  0  0  0  0  0  0  0  0999 V2000
   -3.1185   -3.1559   -0.5695 C   0  0  0  0  0
   -3.0240   -2.3219   -1.6834 C   0  0  0  0  0
    1.6625    2.5862   -1.4507 C   0  0  0  0  0
   -3.0882   -2.6111    0.7143 C   0  0  0  0  0
    0.5194    2.6292   -0.6524 C   0  0  0  0  0
    2.2891    1.3664   -1.7063 C   0  0  0  0  0
   -2.8990   -0.9430   -1.5138 C   0  0  0  0  0
    0.6296    0.2329   -0.3654 C   0  0  0  0  0
   -2.9633   -1.2323    0.8840 C   0  0  0  0  0
    0.0030    1.4526   -0.1098 C   0  0  0  0  0
    1.7726    0.1898   -1.1636 C   0  0  0  0  0
   -2.8687   -0.3982   -0.2300 C   0  0  0  0  0
   -2.9327   -0.6809    2.2722 C   0  0  0  0  0
   -1.1754    1.4974    0.7134 N   0  0  0  0  0
    2.4104   -1.0516   -1.4251 N   0  0  0  0  0
    3.4369   -1.0678   -2.1467 O   0  0  0  0  0
    1.9304   -2.0987   -0.9274 O   0  0  0  0  0
   -3.7340    1.7791    0.8818 O   0  0  0  0  0
   -2.6584    1.9331   -1.3807 O   0  0  0  0  0
   -3.0354   -1.6371    3.2407 F   0  0  0  0  0
   -1.7863    0.0008    2.5618 F   0  0  0  0  0
   -3.9517    0.1943    2.5093 F   0  0  0  0  0
   -2.7087    1.3355   -0.0533 S   0  0  0  0  0
  1  2  1  0  0  0
  3  6  1  0  0  0
  4  9  1  0  0  0
  5 10  1  0  0  0
  7 12  1  0  0  0
  8 11  1  0  0  0
 10 14  1  0  0  0
 11 15  1  0  0  0
 13  9  1  0  0  0
 13 20  1  0  0  0
 13 21  1  0  0  0
 13 22  1  0  0  0
 15 16  1  0  0  0
 23 12  1  0  0  0
 23 14  1  0  0  0
  1  4  2  0  0  0
  2  7  2  0  0  0
  3  5  2  0  0  0
  6 11  2  0  0  0
  8 10  2  0  0  0
  9 12  2  0  0  0
 15 17  2  0  0  0
 23 18  2  0  0  0
 23 19  2  0  0  0
M  CHG  2  15   1  16  -1
M  END
> <rmsd>
0.563684165

$$$$
ZINC00525196


 25 26  0  0  0  0  0  0  0  0999 V2000
   -5.6662   -2.2718   -0.2179 C   0  0  0  0  0
   -3.2836   -2.6719   -0.2137 C   0  0  0  0  0
    2.3786   -0.9740    0.3040 C   0  0  0  0  0
   -5.4433   -0.9481   -0.5970 C   0  0  0  0  0
   -3.0607   -1.3482   -0.5929 C   0  0  0  0  0
    1.5249   -0.8978    1.4046 C   0  0  0  0  0
    1.1884    0.8478   -0.7454 C   0  0  0  0  0
   -4.5863   -3.1337   -0.0262 C   0  0  0  0  0
    0.3346    0.9240    0.3551 C   0  0  0  0  0
    2.2103   -0.1012   -0.7709 C   0  0  0  0  0
   -4.1406   -0.4863   -0.7846 C   0  0  0  0  0
    0.5030    0.0511    1.4301 C   0  0  0  0  0
   -1.0066    2.8292   -0.6009 C   0  0  0  0  0
   -3.7771    1.6988   -0.0775 C   0  0  0  0  0
   -4.8247   -4.5488    0.3789 C   0  0  0  0  0
   -2.2008    3.6755   -0.1737 C   0  0  0  0  0
   -3.5427    3.0960   -0.6131 C   0  0  0  0  0
   -0.7008    1.8884    0.3787 N   0  0  0  0  0
    3.0803   -0.1783   -1.8905 N   0  0  0  0  0
    3.9937   -1.0386   -1.8926 O   0  0  0  0  0
   -0.4339    3.0016   -1.6716 O   0  0  0  0  0
   -3.8326    1.3916    1.1056 O   0  0  0  0  0
    2.9118    0.6158   -2.8474 O   0  0  0  0  0
   -3.9186    0.8392   -1.1653 O   0  0  0  0  0
   -0.3129    0.1146    2.4919 F   0  0  0  0  0
  1  8  1  0  0  0
  2  5  1  0  0  0
  3 10  1  0  0  0
  4 11  1  0  0  0
  6 12  1  0  0  0
  7  9  1  0  0  0
  9 18  1  0  0  0
 10 19  1  0  0  0
 11 24  1  0  0  0
 12 25  1  0  0  0
 13 18  1  0  0  0
 14 24  1  0  0  0
 15  8  1  0  0  0
 16 13  1  0  0  0
 16 17  1  0  0  0
 17 14  1  0  0  0
 19 20  1  0  0  0
  1  4  2  0  0  0
  2  8  2  0  0  0
  3  6  2  0  0  0
  5 11  2  0  0  0
  7 10  2  0  0  0
  9 12  2  0  0  0
 13 21  2  0  0  0
 14 22  2  0  0  0
 19 23  2  0  0  0
M  CHG  2  19   1  20  -1
M  END
> <rmsd>
0.545081019

$$$$
ZINC95381554


 24 26  0  0  0  0  0  0  0  0999 V2000
    1.0107    2.6135   -2.3878 C   0  0  0  0  0
    1.9245    1.5641   -2.4850 C   0  0  0  0  0
    0.0116    2.5805   -1.4147 C   0  0  0  0  0
   -2.7547   -2.3262   -1.7769 C   0  0  0  0  0
   -2.6135   -0.9539   -1.5637 C   0  0  0  0  0
   -3.3536   -1.1947    0.7425 C   0  0  0  0  0
    1.8393    0.4818   -1.6092 C   0  0  0  0  0
   -3.4972   -2.5513    0.5148 C   0  0  0  0  0
    0.8403    0.4488   -0.6362 C   0  0  0  0  0
   -0.0734    1.4981   -0.5390 C   0  0  0  0  0
   -3.2017   -3.0993   -0.7227 C   0  0  0  0  0
   -2.9123   -0.3911   -0.3118 C   0  0  0  0  0
    2.8172   -0.6147   -1.7327 C   0  0  0  0  0
   -3.8910   -3.6253    1.4531 C   0  0  0  0  0
   -4.0559   -4.7905    0.4633 C   0  0  0  0  0
    0.7491   -0.7128    0.3034 C   0  0  0  0  0
   -5.5188   -5.1022    0.1579 C   0  0  0  0  0
   -1.1118    1.4849    0.4559 N   0  0  0  0  0
    3.9129   -0.5430   -1.0620 O   0  0  0  0  0
    2.5404   -1.6044   -2.5069 O   0  0  0  0  0
   -3.6171    1.7158    1.0257 O   0  0  0  0  0
   -2.9015    1.9956   -1.3636 O   0  0  0  0  0
   -3.3873   -4.4561   -0.7816 O   0  0  0  0  0
   -2.7432    1.3316   -0.0759 S   0  0  0  0  0
  1  2  1  0  0  0
  3 10  1  0  0  0
  4 11  1  0  0  0
  5 12  1  0  0  0
  6  8  1  0  0  0
  7  9  1  0  0  0
  7 13  1  0  0  0
 10 18  1  0  0  0
 11 23  1  0  0  0
 13 19  1  0  0  0
 14  8  1  0  0  0
 14 15  1  0  0  0
 15 17  1  0  0  0
 15 23  1  0  0  0
 16  9  1  0  0  0
 24 12  1  0  0  0
 24 18  1  0  0  0
  1  3  2  0  0  0
  2  7  2  0  0  0
  4  5  2  0  0  0
  6 12  2  0  0  0
  8 11  2  0  0  0
  9 10  2  0  0  0
 13 20  2  0  0  0
 24 21  2  0  0  0
 24 22  2  0  0  0
M  CHG  1  19  -1
M  END
> <rmsd>
0.565651715

$$$$
ZINC95381554


 24 26  0  0  0  0  0  0  0  0999 V2000
    0.6827    2.4604   -2.7345 C   0  0  0  0  0
    1.5278    1.3688   -2.9340 C   0  0  0  0  0
   -0.2093    2.4651   -1.6620 C   0  0  0  0  0
   -3.2397   -2.2958   -1.7621 C   0  0  0  0  0
   -3.0086   -0.9346   -1.5563 C   0  0  0  0  0
   -3.5140   -1.1655    0.8134 C   0  0  0  0  0
    1.4809    0.2819   -2.0610 C   0  0  0  0  0
   -3.7482   -2.5108    0.5934 C   0  0  0  0  0
    0.5891    0.2865   -0.9885 C   0  0  0  0  0
   -0.2560    1.3782   -0.7890 C   0  0  0  0  0
   -3.6117   -3.0583   -0.6717 C   0  0  0  0  0
   -3.1461   -0.3724   -0.2764 C   0  0  0  0  0
    2.3847   -0.8597   -2.2937 C   0  0  0  0  0
   -4.0945   -3.5750    1.5611 C   0  0  0  0  0
   -4.4202   -4.7192    0.5868 C   0  0  0  0  0
    0.5390   -0.8800   -0.0519 C   0  0  0  0  0
   -5.9208   -4.9554    0.4351 C   0  0  0  0  0
   -1.1837    1.4043    0.3095 N   0  0  0  0  0
    3.5468   -0.8494   -1.7417 O   0  0  0  0  0
    1.9792   -1.8256   -3.0408 O   0  0  0  0  0
   -3.6009    1.7509    1.1413 O   0  0  0  0  0
   -3.1266    2.0229   -1.3082 O   0  0  0  0  0
   -3.8699   -4.4036   -0.7193 O   0  0  0  0  0
   -2.8675    1.3372   -0.0486 S   0  0  0  0  0
  1  2  1  0  0  0
  3 10  1  0  0  0
  4 11  1  0  0  0
  5 12  1  0  0  0
  6  8  1  0  0  0
  7  9  1  0  0  0
  7 13  1  0  0  0
 10 18  1  0  0  0
 11 23  1  0  0  0
 13 19  1  0  0  0
 14  8  1  0  0  0
 14 15  1  0  0  0
 15 17  1  0  0  0
 15 23  1  0  0  0
 16  9  1  0  0  0
 24 12  1  0  0  0
 24 18  1  0  0  0
  1  3  2  0  0  0
  2  7  2  0  0  0
  4  5  2  0  0  0
  6 12  2  0  0  0
  8 11  2  0  0  0
  9 10  2  0  0  0
 13 20  2  0  0  0
 24 21  2  0  0  0
 24 22  2  0  0  0
M  CHG  1  19  -1
M  END
> <rmsd>
0.388957322

$$$$
ZINC34781667


 24 26  0  0  0  0  0  0  0  0999 V2000
   -3.3328   -3.0317   -0.4553 C   0  0  0  0  0
   -3.5938   -2.2740   -1.5969 C   0  0  0  0  0
   -3.0732   -2.3964    0.7591 C   0  0  0  0  0
   -3.5950   -0.8810   -1.5242 C   0  0  0  0  0
   -3.0744   -1.0035    0.8318 C   0  0  0  0  0
   -3.3353   -0.2457   -0.3098 C   0  0  0  0  0
    2.7749   -0.5122   -0.1736 C   0  0  0  0  0
    3.0708   -1.3138    0.8772 C   0  0  0  0  0
    1.1675    1.3292   -0.8565 C   0  0  0  0  0
    3.3905   -0.7901   -1.5401 C   0  0  0  0  0
   -1.9552    1.8452   -0.5062 C   0  0  0  0  0
    2.3692   -1.2180    2.2301 C   0  0  0  0  0
    0.3726    1.8225    0.3862 C   0  0  0  0  0
    1.4064    1.0236    1.2094 C   0  0  0  0  0
    4.1060   -2.4113    0.8450 C   0  0  0  0  0
   -3.3365    1.2633   -0.2311 C   0  0  0  0  0
    1.8823    0.5048   -0.0603 N   0  0  0  0  0
   -3.7750    1.7345    1.0597 N   0  0  0  0  0
   -1.0224    1.3846    0.3986 N   0  0  0  0  0
    2.7153   -1.5581   -2.2741 O   0  0  0  0  0
    1.1307    1.5153   -2.0502 O   0  0  0  0  0
    4.4899   -0.2137   -1.7481 O   0  0  0  0  0
   -1.7399    2.6542   -1.4067 O   0  0  0  0  0
    0.7633   -0.3515    2.1900 S   0  0  0  0  0
  1  2  1  0  0  0
  3  5  1  0  0  0
  4  6  1  0  0  0
  7 10  1  0  0  0
  7 17  1  0  0  0
  9 17  1  0  0  0
 10 20  1  0  0  0
 11 19  1  0  0  0
 12  8  1  0  0  0
 12 24  1  0  0  0
 13  9  1  0  0  0
 13 14  1  0  0  0
 13 19  1  0  0  0
 14 17  1  0  0  0
 14 24  1  0  0  0
 15  8  1  0  0  0
 16  6  1  0  0  0
 16 11  1  0  0  0
 16 18  1  0  0  0
  1  3  2  0  0  0
  2  4  2  0  0  0
  5  6  2  0  0  0
  7  8  2  0  0  0
  9 21  2  0  0  0
 10 22  2  0  0  0
 11 23  2  0  0  0
M  CHG  1  20  -1
M  END
> <rmsd>
0.302393764

$$$$
ZINC34781667


 24 26  0  0  0  0  0  0  0  0999 V2000
   -2.8662   -3.0243   -0.5651 C   0  0  0  0  0
   -3.1018   -2.2650   -1.7112 C   0  0  0  0  0
   -2.7497   -2.3969    0.6754 C   0  0  0  0  0
   -3.2208   -0.8784   -1.6169 C   0  0  0  0  0
   -2.8688   -1.0103    0.7696 C   0  0  0  0  0
   -3.1043   -0.2510   -0.3765 C   0  0  0  0  0
    2.9805   -0.0353    0.2188 C   0  0  0  0  0
    3.2610   -0.8335    1.2763 C   0  0  0  0  0
    1.2850    1.6873   -0.5552 C   0  0  0  0  0
    3.7163   -0.2338   -1.1013 C   0  0  0  0  0
   -1.8865    1.9465   -0.4348 C   0  0  0  0  0
    2.4553   -0.8230    2.5734 C   0  0  0  0  0
    0.3627    2.0890    0.6312 C   0  0  0  0  0
    1.3934    1.3569    1.5179 C   0  0  0  0  0
    4.3809   -1.8445    1.3056 C   0  0  0  0  0
   -3.2331    1.2511   -0.2744 C   0  0  0  0  0
    2.0027    0.9051    0.2800 N   0  0  0  0  0
   -3.8029    1.6579    0.9865 N   0  0  0  0  0
   -0.9895    1.5417    0.5309 N   0  0  0  0  0
    3.1618   -1.0367   -1.8963 O   0  0  0  0  0
    1.3222    1.8957   -1.7452 O   0  0  0  0  0
    4.7781    0.4323   -1.2161 O   0  0  0  0  0
   -1.6708    2.7894   -1.3035 O   0  0  0  0  0
    0.7922   -0.0859    2.4252 S   0  0  0  0  0
  1  2  1  0  0  0
  3  5  1  0  0  0
  4  6  1  0  0  0
  7 10  1  0  0  0
  7 17  1  0  0  0
  9 17  1  0  0  0
 10 20  1  0  0  0
 11 19  1  0  0  0
 12  8  1  0  0  0
 12 24  1  0  0  0
 13  9  1  0  0  0
 13 14  1  0  0  0
 13 19  1  0  0  0
 14 17  1  0  0  0
 14 24  1  0  0  0
 15  8  1  0  0  0
 16  6  1  0  0  0
 16 11  1  0  0  0
 16 18  1  0  0  0
  1  3  2  0  0  0
  2  4  2  0  0  0
  5  6  2  0  0  0
  7  8  2  0  0  0
  9 21  2  0  0  0
 10 22  2  0  0  0
 11 23  2  0  0  0
M  CHG  1  20  -1
M  END
> <rmsd>
0.545185506

$$$$
ZINC91054606


 24 26  0  0  0  0  0  0  0  0999 V2000
   -3.7238   -2.5397    0.6130 C   0  0  0  0  0
    0.7230    2.4629   -2.7264 C   0  0  0  0  0
    1.5592    1.3633   -2.9197 C   0  0  0  0  0
   -3.5012   -1.1717    0.7849 C   0  0  0  0  0
   -2.9925   -0.9104   -1.5805 C   0  0  0  0  0
   -3.5894   -3.0714   -0.6585 C   0  0  0  0  0
   -3.2272   -2.2651   -1.7439 C   0  0  0  0  0
   -0.1784    2.4749   -1.6620 C   0  0  0  0  0
    0.5925    0.2878   -0.9843 C   0  0  0  0  0
   -0.2437    1.3874   -0.7910 C   0  0  0  0  0
    1.4940    0.2758   -2.0487 C   0  0  0  0  0
   -3.1383   -0.3630   -0.3039 C   0  0  0  0  0
   -3.7376   -4.4988   -1.0811 C   0  0  0  0  0
   -3.0983   -3.0788   -2.9927 C   0  0  0  0  0
   -3.8755   -4.3454   -2.6034 C   0  0  0  0  0
   -1.0616    3.6663   -1.4801 C   0  0  0  0  0
    0.5200   -0.8778   -0.0463 C   0  0  0  0  0
   -1.1737    1.4031    0.3060 N   0  0  0  0  0
    2.3585   -0.8326   -2.2668 N   0  0  0  0  0
    3.4868   -0.8369   -1.7208 O   0  0  0  0  0
    1.9660   -1.7717   -2.9984 O   0  0  0  0  0
   -3.5918    1.7453    1.1367 O   0  0  0  0  0
   -3.1118    2.0438   -1.3088 O   0  0  0  0  0
   -2.8568    1.3436   -0.0564 S   0  0  0  0  0
  1  6  1  0  0  0
  2  8  1  0  0  0
  3 11  1  0  0  0
  4 12  1  0  0  0
  5  7  1  0  0  0
  9 10  1  0  0  0
 10 18  1  0  0  0
 11 19  1  0  0  0
 13  6  1  0  0  0
 13 15  1  0  0  0
 14  7  1  0  0  0
 14 15  1  0  0  0
 16  8  1  0  0  0
 17  9  1  0  0  0
 19 20  1  0  0  0
 24 12  1  0  0  0
 24 18  1  0  0  0
  1  4  2  0  0  0
  2  3  2  0  0  0
  5 12  2  0  0  0
  6  7  2  0  0  0
  8 10  2  0  0  0
  9 11  2  0  0  0
 19 21  2  0  0  0
 24 22  2  0  0  0
 24 23  2  0  0  0
M  CHG  2  19   1  20  -1
M  END
> <rmsd>
0.399187922

$$$$
ZINC91054606


 24 26  0  0  0  0  0  0  0  0999 V2000
   -3.2250   -2.2921   -1.7758 C   0  0  0  0  0
    0.7084    2.4434   -2.7433 C   0  0  0  0  0
    1.5471    1.3445   -2.9298 C   0  0  0  0  0
   -3.0006   -0.9300   -1.5645 C   0  0  0  0  0
   -3.4999   -1.1680    0.8052 C   0  0  0  0  0
   -3.5720   -3.0759   -0.6883 C   0  0  0  0  0
   -3.7084   -2.5196    0.5889 C   0  0  0  0  0
   -0.1894    2.4621   -1.6759 C   0  0  0  0  0
    0.5898    0.2832   -0.9819 C   0  0  0  0  0
   -0.2487    1.3821   -0.7953 C   0  0  0  0  0
    1.4878    0.2644   -2.0492 C   0  0  0  0  0
   -3.1368   -0.3720   -0.2833 C   0  0  0  0  0
   -3.8961   -4.5363   -0.6707 C   0  0  0  0  0
   -4.1376   -3.5561    1.5787 C   0  0  0  0  0
   -3.7807   -4.8484    0.8290 C   0  0  0  0  0
   -1.0753    3.6527   -1.5014 C   0  0  0  0  0
    0.5238   -0.8745   -0.0336 C   0  0  0  0  0
   -1.1751    1.4047    0.3046 N   0  0  0  0  0
    2.3547   -0.8434   -2.2606 N   0  0  0  0  0
    3.4848   -0.8399   -1.7184 O   0  0  0  0  0
    1.9623   -1.7900   -2.9827 O   0  0  0  0  0
   -3.5914    1.7474    1.1405 O   0  0  0  0  0
   -3.1205    2.0260   -1.3091 O   0  0  0  0  0
   -2.8592    1.3374   -0.0515 S   0  0  0  0  0
  1  6  1  0  0  0
  2  8  1  0  0  0
  3 11  1  0  0  0
  4 12  1  0  0  0
  5  7  1  0  0  0
  9 10  1  0  0  0
 10 18  1  0  0  0
 11 19  1  0  0  0
 13  6  1  0  0  0
 13 15  1  0  0  0
 14  7  1  0  0  0
 14 15  1  0  0  0
 16  8  1  0  0  0
 17  9  1  0  0  0
 19 20  1  0  0  0
 24 12  1  0  0  0
 24 18  1  0  0  0
  1  4  2  0  0  0
  2  3  2  0  0  0
  5 12  2  0  0  0
  6  7  2  0  0  0
  8 10  2  0  0  0
  9 11  2  0  0  0
 19 21  2  0  0  0
 24 22  2  0  0  0
 24 23  2  0  0  0
M  CHG  2  19   1  20  -1
M  END
> <rmsd>
0.404145539

$$$$
ZINC72089136


 24 25  0  0  0  0  0  0  0  0999 V2000
    0.6905    2.4719   -2.7247 C   0  0  0  0  0
    1.5332    1.3793   -2.9285 C   0  0  0  0  0
   -3.7366   -2.5313    0.6028 C   0  0  0  0  0
   -3.2421   -2.2855   -1.7493 C   0  0  0  0  0
   -0.2030    2.4733   -1.6535 C   0  0  0  0  0
   -3.5095   -1.1683    0.7929 C   0  0  0  0  0
   -3.0149   -0.9225   -1.5591 C   0  0  0  0  0
    1.4825    0.2880   -2.0611 C   0  0  0  0  0
   -3.6029   -3.0900   -0.6684 C   0  0  0  0  0
    0.5890    0.2894   -0.9900 C   0  0  0  0  0
   -0.2537    1.3821   -0.7862 C   0  0  0  0  0
   -3.1487   -0.3638   -0.2879 C   0  0  0  0  0
    2.3837   -0.8546   -2.2983 C   0  0  0  0  0
    0.5347   -0.8817   -0.0594 C   0  0  0  0  0
   -1.4851   -5.0543   -1.6905 C   0  0  0  0  0
   -2.0626   -5.3067    0.7315 C   0  0  0  0  0
   -3.8478   -4.5649   -0.8743 C   0  0  0  0  0
   -2.5883   -5.4360   -0.7003 C   0  0  0  0  0
   -1.1831    1.4049    0.3111 N   0  0  0  0  0
    3.5451   -0.8499   -1.7445 O   0  0  0  0  0
    1.9770   -1.8157   -3.0509 O   0  0  0  0  0
   -3.6008    1.7530    1.1406 O   0  0  0  0  0
   -3.1215    2.0371   -1.3067 O   0  0  0  0  0
   -2.8664    1.3426   -0.0506 S   0  0  0  0  0
  1  2  1  0  0  0
  3  9  1  0  0  0
  4  7  1  0  0  0
  5 11  1  0  0  0
  6 12  1  0  0  0
  8 10  1  0  0  0
  8 13  1  0  0  0
 11 19  1  0  0  0
 13 20  1  0  0  0
 14 10  1  0  0  0
 15 18  1  0  0  0
 16 18  1  0  0  0
 17  9  1  0  0  0
 17 18  1  0  0  0
 24 12  1  0  0  0
 24 19  1  0  0  0
  1  5  2  0  0  0
  2  8  2  0  0  0
  3  6  2  0  0  0
  4  9  2  0  0  0
  7 12  2  0  0  0
 10 11  2  0  0  0
 13 21  2  0  0  0
 24 22  2  0  0  0
 24 23  2  0  0  0
M  CHG  1  20  -1
M  END
> <rmsd>
0.390699446

$$$$
ZINC72089136


 24 25  0  0  0  0  0  0  0  0999 V2000
    1.0192    2.6217   -2.3762 C   0  0  0  0  0
    1.9306    1.5706   -2.4771 C   0  0  0  0  0
   -3.4881   -2.5707    0.5264 C   0  0  0  0  0
   -2.7601   -2.3169   -1.7633 C   0  0  0  0  0
    0.0185    2.5864   -1.4051 C   0  0  0  0  0
   -3.3484   -1.1969    0.7231 C   0  0  0  0  0
   -2.6204   -0.9431   -1.5666 C   0  0  0  0  0
    1.8412    0.4841   -1.6069 C   0  0  0  0  0
   -3.1939   -3.1308   -0.7168 C   0  0  0  0  0
    0.8404    0.4488   -0.6358 C   0  0  0  0  0
   -0.0709    1.4999   -0.5349 C   0  0  0  0  0
   -2.9147   -0.3831   -0.3233 C   0  0  0  0  0
    2.8165   -0.6143   -1.7341 C   0  0  0  0  0
    0.7447   -0.7172    0.2979 C   0  0  0  0  0
   -0.8876   -4.9953   -1.4868 C   0  0  0  0  0
   -1.7051   -5.2594    0.8639 C   0  0  0  0  0
   -3.3442   -4.6174   -0.9297 C   0  0  0  0  0
   -2.0696   -5.4241   -0.6137 C   0  0  0  0  0
   -1.1111    1.4844    0.4580 N   0  0  0  0  0
    3.9112   -0.5486   -1.0613 O   0  0  0  0  0
    2.5385   -1.5993   -2.5138 O   0  0  0  0  0
   -3.6169    1.7185    1.0243 O   0  0  0  0  0
   -2.8958    2.0093   -1.3622 O   0  0  0  0  0
   -2.7418    1.3368   -0.0780 S   0  0  0  0  0
  1  2  1  0  0  0
  3  9  1  0  0  0
  4  7  1  0  0  0
  5 11  1  0  0  0
  6 12  1  0  0  0
  8 10  1  0  0  0
  8 13  1  0  0  0
 11 19  1  0  0  0
 13 20  1  0  0  0
 14 10  1  0  0  0
 15 18  1  0  0  0
 16 18  1  0  0  0
 17  9  1  0  0  0
 17 18  1  0  0  0
 24 12  1  0  0  0
 24 19  1  0  0  0
  1  5  2  0  0  0
  2  8  2  0  0  0
  3  6  2  0  0  0
  4  9  2  0  0  0
  7 12  2  0  0  0
 10 11  2  0  0  0
 13 21  2  0  0  0
 24 22  2  0  0  0
 24 23  2  0  0  0
M  CHG  1  20  -1
M  END
> <rmsd>
0.56694603

$$$$
ZINC72089136


 24 25  0  0  0  0  0  0  0  0999 V2000
    1.0199    2.6224   -2.3748 C   0  0  0  0  0
    1.9310    1.5711   -2.4758 C   0  0  0  0  0
   -2.7558   -2.3167   -1.7626 C   0  0  0  0  0
   -3.4843   -2.5708    0.5269 C   0  0  0  0  0
    0.0189    2.5869   -1.4038 C   0  0  0  0  0
   -2.6192   -0.9425   -1.5666 C   0  0  0  0  0
   -3.3477   -1.1965    0.7229 C   0  0  0  0  0
    1.8412    0.4843   -1.6061 C   0  0  0  0  0
   -3.1884   -3.1310   -0.7158 C   0  0  0  0  0
    0.8402    0.4488   -0.6353 C   0  0  0  0  0
   -0.0709    1.5000   -0.5342 C   0  0  0  0  0
   -2.9150   -0.3824   -0.3240 C   0  0  0  0  0
    2.8163   -0.6143   -1.7336 C   0  0  0  0  0
    0.7440   -0.7175    0.2979 C   0  0  0  0  0
   -5.8350   -4.6483   -0.4295 C   0  0  0  0  0
   -5.0190   -4.4045   -2.7829 C   0  0  0  0  0
   -3.3371   -4.6178   -0.9278 C   0  0  0  0  0
   -4.7353   -5.0403   -1.4197 C   0  0  0  0  0
   -1.1113    1.4844    0.4586 N   0  0  0  0  0
    3.9109   -0.5490   -1.0605 O   0  0  0  0  0
    2.5383   -1.5989   -2.5138 O   0  0  0  0  0
   -3.6172    1.7188    1.0243 O   0  0  0  0  0
   -2.8955    2.0104   -1.3618 O   0  0  0  0  0
   -2.7420    1.3373   -0.0778 S   0  0  0  0  0
  1  2  1  0  0  0
  3  9  1  0  0  0
  4  7  1  0  0  0
  5 11  1  0  0  0
  6 12  1  0  0  0
  8 10  1  0  0  0
  8 13  1  0  0  0
 11 19  1  0  0  0
 13 20  1  0  0  0
 14 10  1  0  0  0
 15 18  1  0  0  0
 16 18  1  0  0  0
 17  9  1  0  0  0
 17 18  1  0  0  0
 24 12  1  0  0  0
 24 19  1  0  0  0
  1  5  2  0  0  0
  2  8  2  0  0  0
  3  6  2  0  0  0
  4  9  2  0  0  0
  7 12  2  0  0  0
 10 11  2  0  0  0
 13 21  2  0  0  0
 24 22  2  0  0  0
 24 23  2  0  0  0
M  CHG  1  20  -1
M  END
> <rmsd>
0.568231404

$$$$
ZINC72089136


 24 25  0  0  0  0  0  0  0  0999 V2000
    0.6912    2.4722   -2.7235 C   0  0  0  0  0
    1.5337    1.3795   -2.9274 C   0  0  0  0  0
   -3.2379   -2.2857   -1.7487 C   0  0  0  0  0
   -3.7330   -2.5315    0.6032 C   0  0  0  0  0
   -0.2025    2.4736   -1.6524 C   0  0  0  0  0
   -3.0139   -0.9221   -1.5591 C   0  0  0  0  0
   -3.5089   -1.1678    0.7929 C   0  0  0  0  0
    1.4824    0.2880   -2.0603 C   0  0  0  0  0
   -3.5975   -3.0904   -0.6676 C   0  0  0  0  0
    0.5887    0.2893   -0.9894 C   0  0  0  0  0
   -0.2538    1.3821   -0.7855 C   0  0  0  0  0
   -3.1492   -0.3632   -0.2883 C   0  0  0  0  0
    2.3834   -0.8549   -2.2977 C   0  0  0  0  0
    0.5339   -0.8820   -0.0591 C   0  0  0  0  0
   -6.2708   -4.4814   -0.1133 C   0  0  0  0  0
   -5.6961   -4.2494   -2.5381 C   0  0  0  0  0
   -3.8408   -4.5658   -0.8726 C   0  0  0  0  0
   -5.3022   -4.9144   -1.2168 C   0  0  0  0  0
   -1.1833    1.4049    0.3117 N   0  0  0  0  0
    3.5446   -0.8505   -1.7436 O   0  0  0  0  0
    1.9766   -1.8155   -3.0506 O   0  0  0  0  0
   -3.6011    1.7533    1.1408 O   0  0  0  0  0
   -3.1212    2.0381   -1.3063 O   0  0  0  0  0
   -2.8667    1.3431   -0.0503 S   0  0  0  0  0
  1  2  1  0  0  0
  3  9  1  0  0  0
  4  7  1  0  0  0
  5 11  1  0  0  0
  6 12  1  0  0  0
  8 10  1  0  0  0
  8 13  1  0  0  0
 11 19  1  0  0  0
 13 20  1  0  0  0
 14 10  1  0  0  0
 15 18  1  0  0  0
 16 18  1  0  0  0
 17  9  1  0  0  0
 17 18  1  0  0  0
 24 12  1  0  0  0
 24 19  1  0  0  0
  1  5  2  0  0  0
  2  8  2  0  0  0
  3  6  2  0  0  0
  4  9  2  0  0  0
  7 12  2  0  0  0
 10 11  2  0  0  0
 13 21  2  0  0  0
 24 22  2  0  0  0
 24 23  2  0  0  0
M  CHG  1  20  -1
M  END
> <rmsd>
0.39154774

$$$$
ZINC72045265


 24 25  0  0  0  0  0  0  0  0999 V2000
    0.6907    2.4721   -2.7241 C   0  0  0  0  0
    1.5336    1.3796   -2.9277 C   0  0  0  0  0
   -3.7364   -2.5316    0.6026 C   0  0  0  0  0
   -3.2415   -2.2858   -1.7493 C   0  0  0  0  0
   -0.2029    2.4734   -1.6530 C   0  0  0  0  0
   -3.5094   -1.1687    0.7929 C   0  0  0  0  0
   -3.0146   -0.9227   -1.5591 C   0  0  0  0  0
    1.4828    0.2882   -2.0605 C   0  0  0  0  0
   -3.6024   -3.0903   -0.6684 C   0  0  0  0  0
    0.5892    0.2895   -0.9894 C   0  0  0  0  0
   -0.2537    1.3821   -0.7857 C   0  0  0  0  0
   -3.1485   -0.3642   -0.2879 C   0  0  0  0  0
    2.3842   -0.8543   -2.2975 C   0  0  0  0  0
    0.5348   -0.8816   -0.0588 C   0  0  0  0  0
   -5.2418   -6.3606   -2.0661 C   0  0  0  0  0
   -2.5662   -5.2735   -1.3437 C   0  0  0  0  0
   -4.9976   -4.8703   -1.8617 C   0  0  0  0  0
   -3.8488   -4.5748   -0.8759 C   0  0  0  0  0
   -1.1832    1.4048    0.3115 N   0  0  0  0  0
    3.5455   -0.8495   -1.7435 O   0  0  0  0  0
    1.9777   -1.8154   -3.0502 O   0  0  0  0  0
   -3.6010    1.7526    1.1406 O   0  0  0  0  0
   -3.1214    2.0368   -1.3066 O   0  0  0  0  0
   -2.8665    1.3424   -0.0504 S   0  0  0  0  0
  1  2  1  0  0  0
  3  9  1  0  0  0
  4  7  1  0  0  0
  5 11  1  0  0  0
  6 12  1  0  0  0
  8 10  1  0  0  0
  8 13  1  0  0  0
 11 19  1  0  0  0
 13 20  1  0  0  0
 14 10  1  0  0  0
 15 17  1  0  0  0
 16 18  1  0  0  0
 17 18  1  0  0  0
 18  9  1  0  0  0
 24 12  1  0  0  0
 24 19  1  0  0  0
  1  5  2  0  0  0
  2  8  2  0  0  0
  3  6  2  0  0  0
  4  9  2  0  0  0
  7 12  2  0  0  0
 10 11  2  0  0  0
 13 21  2  0  0  0
 24 22  2  0  0  0
 24 23  2  0  0  0
M  CHG  1  20  -1
M  END
> <rmsd>
0.390649587

$$$$
ZINC72045265


 24 25  0  0  0  0  0  0  0  0999 V2000
    1.0192    2.6219   -2.3760 C   0  0  0  0  0
    1.9306    1.5709   -2.4768 C   0  0  0  0  0
   -3.4879   -2.5710    0.5263 C   0  0  0  0  0
   -2.7598   -2.3171   -1.7633 C   0  0  0  0  0
    0.0184    2.5865   -1.4048 C   0  0  0  0  0
   -3.3482   -1.1973    0.7231 C   0  0  0  0  0
   -2.6203   -0.9433   -1.5666 C   0  0  0  0  0
    1.8412    0.4843   -1.6067 C   0  0  0  0  0
   -3.1936   -3.1311   -0.7169 C   0  0  0  0  0
    0.8405    0.4488   -0.6357 C   0  0  0  0  0
   -0.0710    1.4999   -0.5348 C   0  0  0  0  0
   -2.9145   -0.3834   -0.3233 C   0  0  0  0  0
    2.8167   -0.6141   -1.7340 C   0  0  0  0  0
    0.7447   -0.7172    0.2980 C   0  0  0  0  0
   -4.5165   -6.4875   -2.2400 C   0  0  0  0  0
   -1.9877   -5.2651   -1.2533 C   0  0  0  0  0
   -4.3674   -4.9857   -2.0289 C   0  0  0  0  0
   -3.3448   -4.6273   -0.9313 C   0  0  0  0  0
   -1.1111    1.4842    0.4583 N   0  0  0  0  0
    3.9114   -0.5483   -1.0610 O   0  0  0  0  0
    2.5387   -1.5991   -2.5137 O   0  0  0  0  0
   -3.6170    1.7182    1.0243 O   0  0  0  0  0
   -2.8958    2.0091   -1.3621 O   0  0  0  0  0
   -2.7419    1.3365   -0.0779 S   0  0  0  0  0
  1  2  1  0  0  0
  3  9  1  0  0  0
  4  7  1  0  0  0
  5 11  1  0  0  0
  6 12  1  0  0  0
  8 10  1  0  0  0
  8 13  1  0  0  0
 11 19  1  0  0  0
 13 20  1  0  0  0
 14 10  1  0  0  0
 15 17  1  0  0  0
 16 18  1  0  0  0
 17 18  1  0  0  0
 18  9  1  0  0  0
 24 12  1  0  0  0
 24 19  1  0  0  0
  1  5  2  0  0  0
  2  8  2  0  0  0
  3  6  2  0  0  0
  4  9  2  0  0  0
  7 12  2  0  0  0
 10 11  2  0  0  0
 13 21  2  0  0  0
 24 22  2  0  0  0
 24 23  2  0  0  0
M  CHG  1  20  -1
M  END
> <rmsd>
0.56691438

$$$$
ZINC72937776


 24 25  0  0  0  0  0  0  0  0999 V2000
   -2.3443   -2.7718    0.0669 C   0  0  0  0  0
   -2.9992   -0.9933   -1.4313 C   0  0  0  0  0
   -3.6033   -2.7310    0.6658 C   0  0  0  0  0
   -4.2583   -0.9524   -0.8325 C   0  0  0  0  0
   -2.0421   -1.9029   -0.9817 C   0  0  0  0  0
   -4.5603   -1.8214    0.2161 C   0  0  0  0  0
   -0.7398   -1.9450   -1.6012 C   0  0  0  0  0
    1.3479   -1.5355   -2.0294 C   0  0  0  0  0
   -0.3379    1.0501   -0.4123 C   0  0  0  0  0
   -3.0692    2.6408    0.4191 C   0  0  0  0  0
   -5.9063   -1.7775    0.8568 C   0  0  0  0  0
   -4.5057    3.8267   -3.1277 C   0  0  0  0  0
    0.3382   -0.2618   -0.0764 C   0  0  0  0  0
   -1.6055    2.8926    0.6766 C   0  0  0  0  0
   -5.2791    3.1118   -2.0288 C   0  0  0  0  0
   -5.0444    3.7207   -0.6516 C   0  0  0  0  0
   -0.3954   -2.6853   -2.6305 N   0  0  0  0  0
    0.9328   -2.4248   -2.9031 N   0  0  0  0  0
    0.3272   -1.2051   -1.1903 N   0  0  0  0  0
   -0.8841    1.6121    0.7158 N   0  0  0  0  0
   -3.6509    3.6960   -0.2690 N   0  0  0  0  0
   -0.3780    1.5202   -1.5461 O   0  0  0  0  0
   -3.6533    1.6222    0.7792 O   0  0  0  0  0
    2.9122   -0.8842   -1.9429 S   0  0  0  0  0
  1  5  1  0  0  0
  2  4  1  0  0  0
  3  6  1  0  0  0
  5  7  1  0  0  0
  7 19  1  0  0  0
  8 18  1  0  0  0
  8 19  1  0  0  0
  9 20  1  0  0  0
 10 21  1  0  0  0
 11  6  1  0  0  0
 12 15  1  0  0  0
 13  9  1  0  0  0
 13 19  1  0  0  0
 14 10  1  0  0  0
 14 20  1  0  0  0
 15 16  1  0  0  0
 16 21  1  0  0  0
 17 18  1  0  0  0
  1  3  2  0  0  0
  2  5  2  0  0  0
  4  6  2  0  0  0
  7 17  2  0  0  0
  8 24  2  0  0  0
  9 22  2  0  0  0
 10 23  2  0  0  0
M  CHG  1  24  -1
M  END
> <rmsd>
0.497081667

$$$$
ZINC72937776


 24 25  0  0  0  0  0  0  0  0999 V2000
   -2.3440   -2.7716    0.0672 C   0  0  0  0  0
   -2.9991   -0.9933   -1.4312 C   0  0  0  0  0
   -3.6030   -2.7309    0.6661 C   0  0  0  0  0
   -4.2582   -0.9525   -0.8324 C   0  0  0  0  0
   -2.0420   -1.9028   -0.9815 C   0  0  0  0  0
   -4.5602   -1.8214    0.2164 C   0  0  0  0  0
   -0.7396   -1.9450   -1.6010 C   0  0  0  0  0
    1.3479   -1.5354   -2.0294 C   0  0  0  0  0
   -0.3379    1.0503   -0.4124 C   0  0  0  0  0
   -3.0693    2.6410    0.4189 C   0  0  0  0  0
   -5.9061   -1.7775    0.8570 C   0  0  0  0  0
   -5.5612    5.7975    0.7090 C   0  0  0  0  0
    0.3383   -0.2616   -0.0765 C   0  0  0  0  0
   -1.6056    2.8928    0.6763 C   0  0  0  0  0
   -5.9291    4.3495    0.4180 C   0  0  0  0  0
   -5.0446    3.7206   -0.6519 C   0  0  0  0  0
   -0.3953   -2.6854   -2.6303 N   0  0  0  0  0
    0.9329   -2.4247   -2.9029 N   0  0  0  0  0
    0.3273   -1.2049   -1.1903 N   0  0  0  0  0
   -0.8842    1.6123    0.7156 N   0  0  0  0  0
   -3.6511    3.6960   -0.2693 N   0  0  0  0  0
   -0.3781    1.5203   -1.5463 O   0  0  0  0  0
   -3.6533    1.6224    0.7791 O   0  0  0  0  0
    2.9122   -0.8839   -1.9429 S   0  0  0  0  0
  1  5  1  0  0  0
  2  4  1  0  0  0
  3  6  1  0  0  0
  5  7  1  0  0  0
  7 19  1  0  0  0
  8 18  1  0  0  0
  8 19  1  0  0  0
  9 20  1  0  0  0
 10 21  1  0  0  0
 11  6  1  0  0  0
 12 15  1  0  0  0
 13  9  1  0  0  0
 13 19  1  0  0  0
 14 10  1  0  0  0
 14 20  1  0  0  0
 15 16  1  0  0  0
 16 21  1  0  0  0
 17 18  1  0  0  0
  1  3  2  0  0  0
  2  5  2  0  0  0
  4  6  2  0  0  0
  7 17  2  0  0  0
  8 24  2  0  0  0
  9 22  2  0  0  0
 10 23  2  0  0  0
M  CHG  1  24  -1
M  END
> <rmsd>
0.497112751

$$$$
ZINC72937776


 24 25  0  0  0  0  0  0  0  0999 V2000
   -2.2549   -2.9099   -0.0968 C   0  0  0  0  0
   -2.7798   -1.3076   -1.8271 C   0  0  0  0  0
   -3.5797   -2.8745    0.3379 C   0  0  0  0  0
   -4.1047   -1.2722   -1.3924 C   0  0  0  0  0
   -1.8548   -2.1264   -1.1794 C   0  0  0  0  0
   -4.5046   -2.0557   -0.3098 C   0  0  0  0  0
   -0.4844   -2.1630   -1.6291 C   0  0  0  0  0
    1.6245   -1.6958   -1.8378 C   0  0  0  0  0
   -0.3418    0.9433   -0.6928 C   0  0  0  0  0
   -3.2574    2.5895    0.3684 C   0  0  0  0  0
   -5.9210   -2.0175    0.1554 C   0  0  0  0  0
   -7.6680    2.3414   -1.1999 C   0  0  0  0  0
    0.3332   -0.2994   -0.1531 C   0  0  0  0  0
   -1.8009    2.8149    0.0523 C   0  0  0  0  0
   -6.1476    2.3469   -1.2705 C   0  0  0  0  0
   -5.5181    3.3707   -0.3334 C   0  0  0  0  0
    0.0125   -2.9765   -2.5332 N   0  0  0  0  0
    1.3543   -2.6793   -2.6661 N   0  0  0  0  0
    0.4956   -1.3393   -1.1645 N   0  0  0  0  0
   -1.0449    1.5788    0.3015 N   0  0  0  0  0
   -4.0757    3.3841   -0.4217 N   0  0  0  0  0
   -0.2562    1.3061   -1.8629 O   0  0  0  0  0
   -3.6491    1.7957    1.2198 O   0  0  0  0  0
    3.1414   -0.9661   -1.6246 S   0  0  0  0  0
  1  5  1  0  0  0
  2  4  1  0  0  0
  3  6  1  0  0  0
  5  7  1  0  0  0
  7 19  1  0  0  0
  8 18  1  0  0  0
  8 19  1  0  0  0
  9 20  1  0  0  0
 10 21  1  0  0  0
 11  6  1  0  0  0
 12 15  1  0  0  0
 13  9  1  0  0  0
 13 19  1  0  0  0
 14 10  1  0  0  0
 14 20  1  0  0  0
 15 16  1  0  0  0
 16 21  1  0  0  0
 17 18  1  0  0  0
  1  3  2  0  0  0
  2  5  2  0  0  0
  4  6  2  0  0  0
  7 17  2  0  0  0
  8 24  2  0  0  0
  9 22  2  0  0  0
 10 23  2  0  0  0
M  CHG  1  24  -1
M  END
> <rmsd>
0.664902747

$$$$
ZINC00168288


 21 22  0  0  0  0  0  0  0  0999 V2000
    1.6805    2.5958   -1.4054 C   0  0  0  0  0
    0.5320    2.6329   -0.6148 C   0  0  0  0  0
    2.3016    1.3765   -1.6764 C   0  0  0  0  0
   -3.1294   -3.1584   -0.5743 C   0  0  0  0  0
   -3.2017   -2.6124    0.7073 C   0  0  0  0  0
    0.6254    0.2315   -0.3662 C   0  0  0  0  0
   -2.8038   -0.9495   -1.4972 C   0  0  0  0  0
    0.0044    1.4508   -0.0951 C   0  0  0  0  0
    1.7740    0.1945   -1.1569 C   0  0  0  0  0
   -2.8762   -0.4034   -0.2157 C   0  0  0  0  0
   -2.9304   -2.3270   -1.6765 C   0  0  0  0  0
   -3.0752   -1.2349    0.8866 C   0  0  0  0  0
   -1.1709    1.4891    0.7143 N   0  0  0  0  0
    2.4060   -1.0464   -1.4340 N   0  0  0  0  0
    3.4378   -1.0572   -2.1483 O   0  0  0  0  0
    1.9161   -2.0986   -0.9569 O   0  0  0  0  0
   -3.7374    1.7843    0.8787 O   0  0  0  0  0
   -2.6556    1.9191   -1.3819 O   0  0  0  0  0
   -2.7093    1.3507   -0.0488 S   0  0  0  0  0
   -2.8407   -3.0015   -3.2572 Cl  0  0  0  0  0
   -3.1726   -0.6100    2.4936 Cl  0  0  0  0  0
  1  2  1  0  0  0
  3  9  1  0  0  0
  4 11  1  0  0  0
  5 12  1  0  0  0
  6  8  1  0  0  0
  7 10  1  0  0  0
  8 13  1  0  0  0
  9 14  1  0  0  0
 11 20  1  0  0  0
 12 21  1  0  0  0
 14 15  1  0  0  0
 19 10  1  0  0  0
 19 13  1  0  0  0
  1  3  2  0  0  0
  2  8  2  0  0  0
  4  5  2  0  0  0
  6  9  2  0  0  0
  7 11  2  0  0  0
 10 12  2  0  0  0
 14 16  2  0  0  0
 19 17  2  0  0  0
 19 18  2  0  0  0
M  CHG  2  14   1  15  -1
M  END
> <rmsd>
0.557603478

$$$$
ZINC06368785


 21 22  0  0  0  0  0  0  0  0999 V2000
    1.6943    2.6022   -1.3796 C   0  0  0  0  0
   -3.1481   -3.1557   -0.5309 C   0  0  0  0  0
    0.5425    2.6350   -0.5936 C   0  0  0  0  0
    2.3128    1.3838   -1.6604 C   0  0  0  0  0
   -3.0075   -2.5991    0.7404 C   0  0  0  0  0
   -3.1530   -2.3319   -1.6565 C   0  0  0  0  0
    0.6275    0.2310   -0.3689 C   0  0  0  0  0
    0.0091    1.4494   -0.0882 C   0  0  0  0  0
    1.7794    0.1983   -1.1550 C   0  0  0  0  0
   -2.8767   -0.3945   -0.2397 C   0  0  0  0  0
   -2.8718   -1.2185    0.8860 C   0  0  0  0  0
   -3.0172   -0.9513   -1.5109 C   0  0  0  0  0
   -1.1696    1.4832    0.7166 N   0  0  0  0  0
    2.4087   -1.0417   -1.4419 N   0  0  0  0  0
    3.4435   -1.0485   -2.1519 O   0  0  0  0  0
    1.9135   -2.0971   -0.9775 O   0  0  0  0  0
   -3.7358    1.7847    0.8731 O   0  0  0  0  0
   -2.6439    1.9389   -1.3815 O   0  0  0  0  0
   -2.7051    1.3573   -0.0544 S   0  0  0  0  0
   -2.7033   -0.5907    2.4875 Cl  0  0  0  0  0
   -3.0304    0.0146   -2.9441 Cl  0  0  0  0  0
  1  3  1  0  0  0
  2  5  1  0  0  0
  4  9  1  0  0  0
  6 12  1  0  0  0
  7  8  1  0  0  0
  8 13  1  0  0  0
  9 14  1  0  0  0
 10 11  1  0  0  0
 11 20  1  0  0  0
 12 21  1  0  0  0
 14 15  1  0  0  0
 19 10  1  0  0  0
 19 13  1  0  0  0
  1  4  2  0  0  0
  2  6  2  0  0  0
  3  8  2  0  0  0
  5 11  2  0  0  0
  7  9  2  0  0  0
 10 12  2  0  0  0
 14 16  2  0  0  0
 19 17  2  0  0  0
 19 18  2  0  0  0
M  CHG  2  14   1  15  -1
M  END
> <rmsd>
0.55059737

$$$$
ZINC06919712


 21 22  0  0  0  0  0  0  0  0999 V2000
    1.6938    2.6019   -1.3795 C   0  0  0  0  0
    0.5421    2.6347   -0.5934 C   0  0  0  0  0
    2.3122    1.3834   -1.6601 C   0  0  0  0  0
    0.6270    0.2307   -0.3684 C   0  0  0  0  0
   -3.4820   -1.1465    0.7683 C   0  0  0  0  0
   -2.4075   -1.0235   -1.3920 C   0  0  0  0  0
   -3.1475   -3.1560   -0.5307 C   0  0  0  0  0
    0.0087    1.4491   -0.0878 C   0  0  0  0  0
    1.7788    0.1979   -1.1546 C   0  0  0  0  0
   -2.8772   -0.3947   -0.2390 C   0  0  0  0  0
   -3.6172   -2.5272    0.6225 C   0  0  0  0  0
   -2.5426   -2.4042   -1.5379 C   0  0  0  0  0
   -1.1700    1.4831    0.7170 N   0  0  0  0  0
    2.4081   -1.0421   -1.4415 N   0  0  0  0  0
    3.4429   -1.0490   -2.1515 O   0  0  0  0  0
    1.9129   -2.0974   -0.9769 O   0  0  0  0  0
   -3.7362    1.7847    0.8736 O   0  0  0  0  0
   -2.6444    1.9386   -1.3810 O   0  0  0  0  0
   -2.7055    1.3571   -0.0538 S   0  0  0  0  0
   -4.3658   -3.4544    1.8638 Cl  0  0  0  0  0
   -1.9633   -3.1792   -2.9616 Cl  0  0  0  0  0
  1  2  1  0  0  0
  3  9  1  0  0  0
  4  8  1  0  0  0
  5 10  1  0  0  0
  6 12  1  0  0  0
  7 11  1  0  0  0
  8 13  1  0  0  0
  9 14  1  0  0  0
 11 20  1  0  0  0
 12 21  1  0  0  0
 14 15  1  0  0  0
 19 10  1  0  0  0
 19 13  1  0  0  0
  1  3  2  0  0  0
  2  8  2  0  0  0
  4  9  2  0  0  0
  5 11  2  0  0  0
  6 10  2  0  0  0
  7 12  2  0  0  0
 14 16  2  0  0  0
 19 17  2  0  0  0
 19 18  2  0  0  0
M  CHG  2  14   1  15  -1
M  END
> <rmsd>
0.550974607

$$$$
ZINC79097358


 24 25  0  0  0  0  0  0  0  0999 V2000
    1.0106    2.6128   -2.3888 C   0  0  0  0  0
    1.9239    1.5630   -2.4858 C   0  0  0  0  0
   -3.2776   -2.2450   -1.8131 C   0  0  0  0  0
    0.0118    2.5806   -1.4156 C   0  0  0  0  0
   -3.1382   -0.8740   -1.5976 C   0  0  0  0  0
   -2.9688   -2.6480    0.5489 C   0  0  0  0  0
   -3.1930   -3.1320   -0.7399 C   0  0  0  0  0
    1.8383    0.4810   -1.6098 C   0  0  0  0  0
   -2.8294   -1.2769    0.7646 C   0  0  0  0  0
    0.8395    0.4487   -0.6366 C   0  0  0  0  0
   -0.0739    1.4986   -0.5396 C   0  0  0  0  0
   -2.9141   -0.3899   -0.3086 C   0  0  0  0  0
   -3.3402   -4.5783   -0.9678 C   0  0  0  0  0
    2.8157   -0.6161   -1.7329 C   0  0  0  0  0
   -2.5905   -0.7911    2.1568 C   0  0  0  0  0
    0.7478   -0.7125    0.3035 C   0  0  0  0  0
   -1.1121    1.4861    0.4555 N   0  0  0  0  0
   -3.2577   -5.3764    0.0398 O   0  0  0  0  0
    3.9115   -0.5446   -1.0625 O   0  0  0  0  0
   -3.5465   -4.9992   -2.1676 O   0  0  0  0  0
    2.5383   -1.6058   -2.5069 O   0  0  0  0  0
   -3.6169    1.7191    1.0269 O   0  0  0  0  0
   -2.9029    1.9956   -1.3633 O   0  0  0  0  0
   -2.7436    1.3360   -0.0746 S   0  0  0  0  0
  1  2  1  0  0  0
  3  7  1  0  0  0
  4 11  1  0  0  0
  5 12  1  0  0  0
  6  9  1  0  0  0
  7 13  1  0  0  0
  8 10  1  0  0  0
  8 14  1  0  0  0
 11 17  1  0  0  0
 13 18  1  0  0  0
 14 19  1  0  0  0
 15  9  1  0  0  0
 16 10  1  0  0  0
 24 12  1  0  0  0
 24 17  1  0  0  0
  1  4  2  0  0  0
  2  8  2  0  0  0
  3  5  2  0  0  0
  6  7  2  0  0  0
  9 12  2  0  0  0
 10 11  2  0  0  0
 13 20  2  0  0  0
 14 21  2  0  0  0
 24 22  2  0  0  0
 24 23  2  0  0  0
M  CHG  2  18  -1  19  -1
M  END
> <rmsd>
0.568972528

$$$$
ZINC79097358


 24 25  0  0  0  0  0  0  0  0999 V2000
    0.6820    2.4598   -2.7361 C   0  0  0  0  0
    1.5267    1.3678   -2.9353 C   0  0  0  0  0
   -3.7587   -2.1890   -1.7423 C   0  0  0  0  0
   -0.2095    2.4652   -1.6632 C   0  0  0  0  0
   -3.5293   -0.8290   -1.5340 C   0  0  0  0  0
   -3.2243   -2.6337    0.5715 C   0  0  0  0  0
   -3.6062   -3.0913   -0.6896 C   0  0  0  0  0
    1.4797    0.2812   -2.0620 C   0  0  0  0  0
   -2.9948   -1.2737    0.7798 C   0  0  0  0  0
    0.5881    0.2866   -0.9892 C   0  0  0  0  0
   -0.2566    1.3786   -0.7899 C   0  0  0  0  0
   -3.1474   -0.3713   -0.2729 C   0  0  0  0  0
   -3.8484   -4.5260   -0.9098 C   0  0  0  0  0
    2.3829   -0.8608   -2.2943 C   0  0  0  0  0
   -2.5873   -0.8161    2.1422 C   0  0  0  0  0
    0.5378   -0.8794   -0.0520 C   0  0  0  0  0
   -1.1840    1.4055    0.3089 N   0  0  0  0  0
   -3.7005   -5.3387    0.0785 O   0  0  0  0  0
    3.5452   -0.8507   -1.7426 O   0  0  0  0  0
   -4.2002   -4.9225   -2.0838 O   0  0  0  0  0
    1.9769   -1.8268   -3.0410 O   0  0  0  0  0
   -3.6002    1.7541    1.1425 O   0  0  0  0  0
   -3.1281    2.0228   -1.3079 O   0  0  0  0  0
   -2.8675    1.3414   -0.0472 S   0  0  0  0  0
  1  2  1  0  0  0
  3  7  1  0  0  0
  4 11  1  0  0  0
  5 12  1  0  0  0
  6  9  1  0  0  0
  7 13  1  0  0  0
  8 10  1  0  0  0
  8 14  1  0  0  0
 11 17  1  0  0  0
 13 18  1  0  0  0
 14 19  1  0  0  0
 15  9  1  0  0  0
 16 10  1  0  0  0
 24 12  1  0  0  0
 24 17  1  0  0  0
  1  4  2  0  0  0
  2  8  2  0  0  0
  3  5  2  0  0  0
  6  7  2  0  0  0
  9 12  2  0  0  0
 10 11  2  0  0  0
 13 20  2  0  0  0
 14 21  2  0  0  0
 24 22  2  0  0  0
 24 23  2  0  0  0
M  CHG  2  18  -1  19  -1
M  END
> <rmsd>
0.392406225

$$$$
ZINC79097358


 24 25  0  0  0  0  0  0  0  0999 V2000
    1.0322    2.6353   -2.3588 C   0  0  0  0  0
    1.9420    1.5833   -2.4641 C   0  0  0  0  0
   -3.5044   -2.5485    0.5446 C   0  0  0  0  0
    0.0282    2.5949   -1.3913 C   0  0  0  0  0
   -3.3550   -1.1731    0.7211 C   0  0  0  0  0
   -2.7736   -2.3337   -1.7482 C   0  0  0  0  0
   -3.2137   -3.1289   -0.6902 C   0  0  0  0  0
    1.8475    0.4907   -1.6022 C   0  0  0  0  0
   -2.6243   -0.9581   -1.5717 C   0  0  0  0  0
    0.8435    0.4502   -0.6348 C   0  0  0  0  0
   -0.0663    1.5023   -0.5294 C   0  0  0  0  0
   -2.9149   -0.3777   -0.3370 C   0  0  0  0  0
   -3.3714   -4.5802   -0.8760 C   0  0  0  0  0
    2.8213   -0.6086   -1.7340 C   0  0  0  0  0
   -2.1508   -0.1349   -2.7248 C   0  0  0  0  0
    0.7424   -0.7223    0.2902 C   0  0  0  0  0
   -1.1098    1.4815    0.4600 N   0  0  0  0  0
   -3.0967   -5.0914   -2.0258 O   0  0  0  0  0
    3.9139   -0.5498   -1.0570 O   0  0  0  0  0
   -3.7792   -5.2917    0.1172 O   0  0  0  0  0
    2.5442   -1.5874   -2.5218 O   0  0  0  0  0
   -3.6166    1.7171    1.0212 O   0  0  0  0  0
   -2.8890    2.0207   -1.3616 O   0  0  0  0  0
   -2.7390    1.3444   -0.0804 S   0  0  0  0  0
  1  2  1  0  0  0
  3  7  1  0  0  0
  4 11  1  0  0  0
  5 12  1  0  0  0
  6  9  1  0  0  0
  7 13  1  0  0  0
  8 10  1  0  0  0
  8 14  1  0  0  0
 11 17  1  0  0  0
 13 18  1  0  0  0
 14 19  1  0  0  0
 15  9  1  0  0  0
 16 10  1  0  0  0
 24 12  1  0  0  0
 24 17  1  0  0  0
  1  4  2  0  0  0
  2  8  2  0  0  0
  3  5  2  0  0  0
  6  7  2  0  0  0
  9 12  2  0  0  0
 10 11  2  0  0  0
 13 20  2  0  0  0
 14 21  2  0  0  0
 24 22  2  0  0  0
 24 23  2  0  0  0
M  CHG  2  18  -1  19  -1
M  END
> <rmsd>
0.559243739

$$$$
ZINC79097358


 24 25  0  0  0  0  0  0  0  0999 V2000
    0.7041    2.4888   -2.7092 C   0  0  0  0  0
    1.5451    1.3959   -2.9185 C   0  0  0  0  0
   -3.7479   -2.5090    0.6202 C   0  0  0  0  0
   -0.1928    2.4840   -1.6409 C   0  0  0  0  0
   -3.5137   -1.1445    0.7903 C   0  0  0  0  0
   -3.2540   -2.3002   -1.7355 C   0  0  0  0  0
   -3.6181   -3.0868   -0.6428 C   0  0  0  0  0
    1.4891    0.2982   -2.0597 C   0  0  0  0  0
   -3.0198   -0.9356   -1.5655 C   0  0  0  0  0
    0.5922    0.2934   -0.9915 C   0  0  0  0  0
   -0.2489    1.3863   -0.7821 C   0  0  0  0  0
   -3.1496   -0.3578   -0.3025 C   0  0  0  0  0
   -3.8652   -4.5264   -0.8218 C   0  0  0  0  0
    2.3887   -0.8446   -2.3025 C   0  0  0  0  0
   -2.6312   -0.1214   -2.7561 C   0  0  0  0  0
    0.5322   -0.8846   -0.0699 C   0  0  0  0  0
   -1.1817    1.4028    0.3123 N   0  0  0  0  0
   -3.7390   -5.0356   -1.9981 O   0  0  0  0  0
    3.5482   -0.8466   -1.7449 O   0  0  0  0  0
   -4.2001   -5.2303    0.2036 O   0  0  0  0  0
    1.9823   -1.7990   -3.0638 O   0  0  0  0  0
   -3.6006    1.7508    1.1384 O   0  0  0  0  0
   -3.1150    2.0495   -1.3059 O   0  0  0  0  0
   -2.8637    1.3506   -0.0530 S   0  0  0  0  0
  1  2  1  0  0  0
  3  7  1  0  0  0
  4 11  1  0  0  0
  5 12  1  0  0  0
  6  9  1  0  0  0
  7 13  1  0  0  0
  8 10  1  0  0  0
  8 14  1  0  0  0
 11 17  1  0  0  0
 13 18  1  0  0  0
 14 19  1  0  0  0
 15  9  1  0  0  0
 16 10  1  0  0  0
 24 12  1  0  0  0
 24 17  1  0  0  0
  1  4  2  0  0  0
  2  8  2  0  0  0
  3  5  2  0  0  0
  6  7  2  0  0  0
  9 12  2  0  0  0
 10 11  2  0  0  0
 13 20  2  0  0  0
 14 21  2  0  0  0
 24 22  2  0  0  0
 24 23  2  0  0  0
M  CHG  2  18  -1  19  -1
M  END
> <rmsd>
0.385012418

$$$$
ZINC05252519


 24 26  0  0  0  0  0  0  0  0999 V2000
    1.6655    2.5893   -1.4437 C   0  0  0  0  0
   -3.6096   -2.5286    0.6149 C   0  0  0  0  0
    0.5216    2.6302   -0.6465 C   0  0  0  0  0
    2.2922    1.3702   -1.7020 C   0  0  0  0  0
   -3.4692   -1.1491    0.7641 C   0  0  0  0  0
   -2.4094   -1.0147   -1.4054 C   0  0  0  0  0
    0.6312    0.2331   -0.3660 C   0  0  0  0  0
   -2.5329   -2.3998   -1.5582 C   0  0  0  0  0
   -3.1325   -3.1522   -0.5405 C   0  0  0  0  0
    0.0045    1.4522   -0.1077 C   0  0  0  0  0
    1.7752    0.1922   -1.1632 C   0  0  0  0  0
   -2.8681   -0.3938   -0.2428 C   0  0  0  0  0
   -2.7177   -5.2722   -1.7157 C   0  0  0  0  0
   -2.1348   -3.0781   -2.8373 C   0  0  0  0  0
   -1.7254   -4.5208   -2.5814 C   0  0  0  0  0
   -3.2851   -4.5424   -0.6887 N   0  0  0  0  0
   -1.1747    1.4948    0.7145 N   0  0  0  0  0
    2.4129   -1.0485   -1.4276 N   0  0  0  0  0
    3.4402   -1.0629   -2.1481 O   0  0  0  0  0
   -2.9192   -6.4765   -1.8729 O   0  0  0  0  0
    1.9323   -2.0970   -0.9332 O   0  0  0  0  0
   -3.7334    1.7782    0.8795 O   0  0  0  0  0
   -2.6534    1.9437   -1.3800 O   0  0  0  0  0
   -2.7071    1.3349   -0.0565 S   0  0  0  0  0
  1  3  1  0  0  0
  2  9  1  0  0  0
  4 11  1  0  0  0
  5 12  1  0  0  0
  6  8  1  0  0  0
  7 10  1  0  0  0
  9 16  1  0  0  0
 10 17  1  0  0  0
 11 18  1  0  0  0
 13 16  1  0  0  0
 14  8  1  0  0  0
 14 15  1  0  0  0
 15 13  1  0  0  0
 18 19  1  0  0  0
 24 12  1  0  0  0
 24 17  1  0  0  0
  1  4  2  0  0  0
  2  5  2  0  0  0
  3 10  2  0  0  0
  6 12  2  0  0  0
  7 11  2  0  0  0
  8  9  2  0  0  0
 13 20  2  0  0  0
 18 21  2  0  0  0
 24 22  2  0  0  0
 24 23  2  0  0  0
M  CHG  2  18   1  19  -1
M  END
> <rmsd>
0.557085216

$$$$
ZINC89726093


 25 26  0  0  0  0  0  0  0  0999 V2000
    1.0566    3.1679   -2.1618 C   0  0  0  0  0
    2.0104    2.8715   -3.1355 C   0  0  0  0  0
   -4.2848   -2.1427   -0.0297 C   0  0  0  0  0
   -4.4733   -0.9341    0.6408 C   0  0  0  0  0
    1.9612    1.4310   -0.7468 C   0  0  0  0  0
   -2.4080   -1.1914   -1.2169 C   0  0  0  0  0
    1.0320    2.4477   -0.9674 C   0  0  0  0  0
   -2.5965    0.0172   -0.5465 C   0  0  0  0  0
    2.9150    1.1345   -1.7205 C   0  0  0  0  0
   -3.2521   -2.2713   -0.9584 C   0  0  0  0  0
   -3.6292    0.1458    0.3823 C   0  0  0  0  0
    2.9396    1.8548   -2.9149 C   0  0  0  0  0
    4.3761    0.2756   -5.8194 C   0  0  0  0  0
    0.6214    3.1628    1.4244 C   0  0  0  0  0
   -1.9937   -3.5139   -2.5486 C   0  0  0  0  0
   -1.6791    1.1683   -0.8370 C   0  0  0  0  0
    3.3642    1.1864   -5.1574 C   0  0  0  0  0
    0.0123    2.7648    0.0734 C   0  0  0  0  0
    3.8542    0.0949   -1.4788 N   0  0  0  0  0
   -0.9378    1.6348    0.3563 N   0  0  0  0  0
    3.5670   -1.0747   -1.8280 O   0  0  0  0  0
    4.9423    0.3779   -0.9236 O   0  0  0  0  0
   -3.8282    1.3195    1.0450 O   0  0  0  0  0
   -3.0683   -3.4510   -1.6122 O   0  0  0  0  0
    3.8619    1.5839   -3.8818 O   0  0  0  0  0
  1  7  1  0  0  0
  2 12  1  0  0  0
  3 10  1  0  0  0
  4 11  1  0  0  0
  5  9  1  0  0  0
  6  8  1  0  0  0
  9 19  1  0  0  0
 10 24  1  0  0  0
 11 23  1  0  0  0
 12 25  1  0  0  0
 13 17  1  0  0  0
 14 18  1  0  0  0
 15 24  1  0  0  0
 16  8  1  0  0  0
 16 20  1  0  0  0
 17 25  1  0  0  0
 18  7  1  0  0  0
 18 20  1  0  0  0
 19 21  1  0  0  0
  1  2  2  0  0  0
  3  4  2  0  0  0
  5  7  2  0  0  0
  6 10  2  0  0  0
  8 11  2  0  0  0
  9 12  2  0  0  0
 19 22  2  0  0  0
M  CHG  3  19   1  20   1  21  -1
M  END
> <rmsd>
0.431101322

$$$$
ZINC89726093


 25 26  0  0  0  0  0  0  0  0999 V2000
    1.2044    3.2476   -1.8586 C   0  0  0  0  0
    2.0893    3.0877   -2.9249 C   0  0  0  0  0
   -4.2028   -2.1174    0.1981 C   0  0  0  0  0
   -4.6520   -0.8627    0.6097 C   0  0  0  0  0
    2.2314    1.3770   -0.7257 C   0  0  0  0  0
   -2.1400   -1.1255   -0.5749 C   0  0  0  0  0
    1.2754    2.3923   -0.7590 C   0  0  0  0  0
   -2.5891    0.1293   -0.1635 C   0  0  0  0  0
    3.1163    1.2171   -1.7920 C   0  0  0  0  0
   -2.9467   -2.2489   -0.3941 C   0  0  0  0  0
   -3.8452    0.2607    0.4289 C   0  0  0  0  0
    3.0453    2.0725   -2.8916 C   0  0  0  0  0
    6.0344    2.5439   -4.8409 C   0  0  0  0  0
    1.0289    2.8139    1.7234 C   0  0  0  0  0
   -1.2150   -3.5367   -1.3933 C   0  0  0  0  0
   -1.7081    1.3267   -0.3659 C   0  0  0  0  0
    4.7366    3.0498   -4.2480 C   0  0  0  0  0
    0.3294    2.5636    0.3808 C   0  0  0  0  0
    4.0840    0.1767   -1.7412 N   0  0  0  0  0
   -0.5830    1.3880    0.5941 N   0  0  0  0  0
    3.7878   -0.9498   -2.2052 O   0  0  0  0  0
    5.2055    0.4163   -1.2340 O   0  0  0  0  0
   -4.2998    1.4790    0.8354 O   0  0  0  0  0
   -2.5088   -3.4735   -0.7952 O   0  0  0  0  0
    3.8989    1.9364   -3.9460 O   0  0  0  0  0
  1  7  1  0  0  0
  2 12  1  0  0  0
  3 10  1  0  0  0
  4 11  1  0  0  0
  5  9  1  0  0  0
  6  8  1  0  0  0
  9 19  1  0  0  0
 10 24  1  0  0  0
 11 23  1  0  0  0
 12 25  1  0  0  0
 13 17  1  0  0  0
 14 18  1  0  0  0
 15 24  1  0  0  0
 16  8  1  0  0  0
 16 20  1  0  0  0
 17 25  1  0  0  0
 18  7  1  0  0  0
 18 20  1  0  0  0
 19 21  1  0  0  0
  1  2  2  0  0  0
  3  4  2  0  0  0
  5  7  2  0  0  0
  6 10  2  0  0  0
  8 11  2  0  0  0
  9 12  2  0  0  0
 19 22  2  0  0  0
M  CHG  3  19   1  20   1  21  -1
M  END
> <rmsd>
0.52452749

$$$$
ZINC40163784


 24 26  0  0  0  0  0  0  0  0999 V2000
   -3.0899   -3.0289   -0.5577 C   0  0  0  0  0
   -3.3682   -2.2599   -1.6876 C   0  0  0  0  0
   -2.8751   -2.4082    0.6729 C   0  0  0  0  0
   -3.4317   -0.8701   -1.5871 C   0  0  0  0  0
   -2.9385   -1.0183    0.7735 C   0  0  0  0  0
   -3.2168   -0.2493   -0.3565 C   0  0  0  0  0
    1.2324    1.5981   -0.7966 C   0  0  0  0  0
    3.1281   -0.8322   -1.4604 C   0  0  0  0  0
   -1.9270    1.9035   -0.4909 C   0  0  0  0  0
    2.3519    0.9918    0.0689 C   0  0  0  0  0
    0.3870    1.9638    0.4346 C   0  0  0  0  0
    2.6828   -0.4885   -0.0520 C   0  0  0  0  0
    1.4465    1.2372    1.2984 C   0  0  0  0  0
    1.5168   -1.3380    0.4809 C   0  0  0  0  0
    2.0213   -2.6915    1.0050 C   0  0  0  0  0
    0.3780   -1.5878   -0.5179 C   0  0  0  0  0
   -3.2853    1.2563   -0.2477 C   0  0  0  0  0
   -3.7617    1.6812    1.0457 N   0  0  0  0  0
   -0.9853    1.4662    0.4180 N   0  0  0  0  0
    3.6245    0.1243   -2.1173 O   0  0  0  0  0
    1.0706    1.7359   -1.9909 O   0  0  0  0  0
    2.9436   -2.0360   -1.7952 O   0  0  0  0  0
   -1.7353    2.7394   -1.3718 O   0  0  0  0  0
    0.8536   -0.3921    1.9118 S   0  0  0  0  0
  1  2  1  0  0  0
  3  5  1  0  0  0
  4  6  1  0  0  0
  8 20  1  0  0  0
  9 19  1  0  0  0
 10  7  1  0  0  0
 10 12  1  0  0  0
 10 13  1  0  0  0
 11  7  1  0  0  0
 11 13  1  0  0  0
 11 19  1  0  0  0
 12  8  1  0  0  0
 12 14  1  0  0  0
 13 24  1  0  0  0
 14 15  1  0  0  0
 14 16  1  0  0  0
 14 24  1  0  0  0
 17  6  1  0  0  0
 17  9  1  0  0  0
 17 18  1  0  0  0
  1  3  2  0  0  0
  2  4  2  0  0  0
  5  6  2  0  0  0
  7 21  2  0  0  0
  8 22  2  0  0  0
  9 23  2  0  0  0
M  CHG  1  20  -1
M  END
> <rmsd>
0.441147953

$$$$
ZINC40163784


 24 26  0  0  0  0  0  0  0  0999 V2000
   -3.5115   -3.0600   -0.2830 C   0  0  0  0  0
   -3.6905   -2.3486   -1.4694 C   0  0  0  0  0
   -3.2606   -2.3784    0.9079 C   0  0  0  0  0
   -3.6185   -0.9556   -1.4650 C   0  0  0  0  0
   -3.1885   -0.9853    0.9122 C   0  0  0  0  0
   -3.3675   -0.2740   -0.2742 C   0  0  0  0  0
    1.2500    1.0974   -0.7215 C   0  0  0  0  0
    2.9093   -1.5459   -1.1689 C   0  0  0  0  0
   -1.8693    1.7287   -0.5202 C   0  0  0  0  0
    2.2871    0.4475    0.2123 C   0  0  0  0  0
    0.4209    1.6288    0.4595 C   0  0  0  0  0
    2.4727   -1.0628    0.2008 C   0  0  0  0  0
    1.3865    0.8651    1.3981 C   0  0  0  0  0
    1.2184   -1.7557    0.7592 C   0  0  0  0  0
    1.5766   -3.1117    1.3869 C   0  0  0  0  0
    0.0803   -1.9631   -0.2499 C   0  0  0  0  0
   -3.2892    1.2350   -0.2695 C   0  0  0  0  0
   -3.7465    1.7938    0.9792 N   0  0  0  0  0
   -0.9931    1.2668    0.4406 N   0  0  0  0  0
    3.5104   -0.6904   -1.8759 O   0  0  0  0  0
    1.1260    1.1664   -1.9262 O   0  0  0  0  0
    2.6135   -2.7466   -1.4261 O   0  0  0  0  0
   -1.5789    2.4784   -1.4504 O   0  0  0  0  0
    0.6239   -0.6520    2.1047 S   0  0  0  0  0
  1  2  1  0  0  0
  3  5  1  0  0  0
  4  6  1  0  0  0
  8 20  1  0  0  0
  9 19  1  0  0  0
 10  7  1  0  0  0
 10 12  1  0  0  0
 10 13  1  0  0  0
 11  7  1  0  0  0
 11 13  1  0  0  0
 11 19  1  0  0  0
 12  8  1  0  0  0
 12 14  1  0  0  0
 13 24  1  0  0  0
 14 15  1  0  0  0
 14 16  1  0  0  0
 14 24  1  0  0  0
 17  6  1  0  0  0
 17  9  1  0  0  0
 17 18  1  0  0  0
  1  3  2  0  0  0
  2  4  2  0  0  0
  5  6  2  0  0  0
  7 21  2  0  0  0
  8 22  2  0  0  0
  9 23  2  0  0  0
M  CHG  1  20  -1
M  END
> <rmsd>
0.261445224

$$$$
ZINC32962251


 24 25  0  0  0  0  0  0  0  0999 V2000
   -3.2444   -2.5885    0.4338 C   0  0  0  0  0
   -2.4207   -2.2383   -1.8103 C   0  0  0  0  0
   -0.0384    2.7668   -1.2911 C   0  0  0  0  0
    1.0206    2.8833   -2.1914 C   0  0  0  0  0
   -3.2074   -1.2130    0.6621 C   0  0  0  0  0
   -2.3838   -0.8628   -1.5821 C   0  0  0  0  0
    0.9951    0.8064   -0.3290 C   0  0  0  0  0
    2.0541    0.9229   -1.2293 C   0  0  0  0  0
   -2.8510   -3.1011   -0.8023 C   0  0  0  0  0
   -0.0512    1.7284   -0.3599 C   0  0  0  0  0
    2.0669    1.9613   -2.1604 C   0  0  0  0  0
   -2.7771   -0.3500   -0.3459 C   0  0  0  0  0
    3.1484   -0.0647   -1.1749 C   0  0  0  0  0
   -1.5766   -5.2564   -0.6703 C   0  0  0  0  0
    4.2935    2.8892   -2.7448 C   0  0  0  0  0
    3.0725    1.4309   -4.3667 C   0  0  0  0  0
   -2.8884   -4.5719   -1.0460 C   0  0  0  0  0
   -1.1358    1.6091    0.5609 N   0  0  0  0  0
    3.1296    2.0960   -3.0815 N   0  0  0  0  0
    3.0525   -1.1311   -1.8882 O   0  0  0  0  0
    4.1589    0.1757   -0.4162 O   0  0  0  0  0
   -3.6865    1.6731    0.9979 O   0  0  0  0  0
   -2.8585    2.0601   -1.3396 O   0  0  0  0  0
   -2.7296    1.3955   -0.0570 S   0  0  0  0  0
  1  9  1  0  0  0
  2  6  1  0  0  0
  3 10  1  0  0  0
  4 11  1  0  0  0
  5 12  1  0  0  0
  7  8  1  0  0  0
  8 13  1  0  0  0
 10 18  1  0  0  0
 11 19  1  0  0  0
 13 20  1  0  0  0
 14 17  1  0  0  0
 15 19  1  0  0  0
 16 19  1  0  0  0
 17  9  1  0  0  0
 24 12  1  0  0  0
 24 18  1  0  0  0
  1  5  2  0  0  0
  2  9  2  0  0  0
  3  4  2  0  0  0
  6 12  2  0  0  0
  7 10  2  0  0  0
  8 11  2  0  0  0
 13 21  2  0  0  0
 24 22  2  0  0  0
 24 23  2  0  0  0
M  CHG  1  20  -1
M  END
> <rmsd>
0.707438648

$$$$
ZINC32962251


 24 25  0  0  0  0  0  0  0  0999 V2000
   -3.5395   -2.5662    0.5398 C   0  0  0  0  0
   -2.9061   -2.3071   -1.7773 C   0  0  0  0  0
   -0.1070    2.5013   -1.5750 C   0  0  0  0  0
    0.8684    2.5241   -2.5717 C   0  0  0  0  0
   -3.3754   -1.1953    0.7379 C   0  0  0  0  0
   -2.7419   -0.9362   -1.5791 C   0  0  0  0  0
    0.8582    0.4769   -0.6766 C   0  0  0  0  0
    1.8337    0.4997   -1.6734 C   0  0  0  0  0
   -3.3048   -3.1221   -0.7178 C   0  0  0  0  0
   -0.1122    1.4777   -0.6274 C   0  0  0  0  0
    1.8388    1.5233   -2.6209 C   0  0  0  0  0
   -2.9766   -0.3802   -0.3215 C   0  0  0  0  0
    2.8489   -0.5700   -1.7025 C   0  0  0  0  0
   -2.1935   -5.3690   -0.6646 C   0  0  0  0  0
    4.0655    2.2670   -3.4267 C   0  0  0  0  0
    2.5887    0.8906   -4.9008 C   0  0  0  0  0
   -3.4781   -4.5881   -0.9295 C   0  0  0  0  0
   -1.1113    1.4542    0.3922 N   0  0  0  0  0
    2.8174    1.5638   -3.6391 N   0  0  0  0  0
    2.6045   -1.6336   -2.3838 O   0  0  0  0  0
    3.9418   -0.4010   -1.0456 O   0  0  0  0  0
   -3.5970    1.7231    1.0630 O   0  0  0  0  0
   -2.9652    2.0175   -1.3481 O   0  0  0  0  0
   -2.7679    1.3593   -0.0709 S   0  0  0  0  0
  1  9  1  0  0  0
  2  6  1  0  0  0
  3 10  1  0  0  0
  4 11  1  0  0  0
  5 12  1  0  0  0
  7  8  1  0  0  0
  8 13  1  0  0  0
 10 18  1  0  0  0
 11 19  1  0  0  0
 13 20  1  0  0  0
 14 17  1  0  0  0
 15 19  1  0  0  0
 16 19  1  0  0  0
 17  9  1  0  0  0
 24 12  1  0  0  0
 24 18  1  0  0  0
  1  5  2  0  0  0
  2  9  2  0  0  0
  3  4  2  0  0  0
  6 12  2  0  0  0
  7 10  2  0  0  0
  8 11  2  0  0  0
 13 21  2  0  0  0
 24 22  2  0  0  0
 24 23  2  0  0  0
M  CHG  1  20  -1
M  END
> <rmsd>
0.526452303

$$$$
ZINC89255190


 25 26  0  0  0  0  0  0  0  0999 V2000
    5.5226   -0.6424    2.3046 C   0  0  0  0  0
    4.3727   -1.0491    2.9809 C   0  0  0  0  0
   -3.5484   -0.8221   -1.4407 C   0  0  0  0  0
   -3.8839   -0.8953    0.9508 C   0  0  0  0  0
    5.4485   -0.2750    0.9609 C   0  0  0  0  0
    3.1484   -1.0887    2.3137 C   0  0  0  0  0
   -3.6173   -2.2142   -1.4929 C   0  0  0  0  0
   -3.9529   -2.2875    0.8985 C   0  0  0  0  0
   -3.6816   -0.1626   -0.2188 C   0  0  0  0  0
    4.2242   -0.3146    0.2937 C   0  0  0  0  0
    3.0741   -0.7213    0.9701 C   0  0  0  0  0
   -3.8195   -2.9470   -0.3234 C   0  0  0  0  0
   -0.1284    0.4659   -0.2383 C   0  0  0  0  0
   -4.7102    2.0075   -1.0205 C   0  0  0  0  0
    0.8221    0.0348    0.8583 C   0  0  0  0  0
   -2.1889    1.8192   -0.5825 C   0  0  0  0  0
   -3.6068    1.3668   -0.1608 C   0  0  0  0  0
   -1.1334    1.2628    0.2622 N   0  0  0  0  0
    4.1669    0.0634   -1.0760 N   0  0  0  0  0
    4.3364   -0.8149   -1.9545 O   0  0  0  0  0
    0.0132    0.1279   -1.4104 O   0  0  0  0  0
    3.9483    1.2637   -1.3647 O   0  0  0  0  0
   -3.8321    1.8005    1.1878 O   0  0  0  0  0
    1.8562   -0.7705    0.3338 O   0  0  0  0  0
   -3.8885   -4.2837   -0.3739 F   0  0  0  0  0
  1  2  1  0  0  0
  3  9  1  0  0  0
  4  8  1  0  0  0
  5 10  1  0  0  0
  6 11  1  0  0  0
  7 12  1  0  0  0
 10 19  1  0  0  0
 11 24  1  0  0  0
 12 25  1  0  0  0
 13 18  1  0  0  0
 14 17  1  0  0  0
 15 13  1  0  0  0
 15 24  1  0  0  0
 16 17  1  0  0  0
 16 18  1  0  0  0
 17  9  1  0  0  0
 17 23  1  0  0  0
 19 20  1  0  0  0
  1  5  2  0  0  0
  2  6  2  0  0  0
  3  7  2  0  0  0
  4  9  2  0  0  0
  8 12  2  0  0  0
 10 11  2  0  0  0
 13 21  2  0  0  0
 19 22  2  0  0  0
M  CHG  2  19   1  20  -1
M  END
> <rmsd>
0.407641739

$$$$
ZINC04599627


 25 26  0  0  0  0  0  0  0  0999 V2000
   -3.1193   -1.9277   -1.7719 C   0  0  0  0  0
   -3.2197   -2.7628   -0.6592 C   0  0  0  0  0
   -2.7479   -0.5929   -1.6108 C   0  0  0  0  0
   -2.9488   -2.2630    0.6146 C   0  0  0  0  0
   -2.4769   -0.0931   -0.3371 C   0  0  0  0  0
   -2.5774   -0.9282    0.7756 C   0  0  0  0  0
    0.3895    1.4800   -0.4785 C   0  0  0  0  0
    2.4874   -0.5258   -0.7523 C   0  0  0  0  0
   -3.0823    2.1362    0.6527 C   0  0  0  0  0
    2.4636    3.8083   -0.7713 C   0  0  0  0  0
    3.6376    3.0843   -1.4234 C   0  0  0  0  0
    1.9855    3.0990    0.4971 C   0  0  0  0  0
    3.3178    1.6167   -1.6942 C   0  0  0  0  0
    1.6872    1.6121    0.2713 C   0  0  0  0  0
    2.8570    0.9104   -0.4228 C   0  0  0  0  0
   -2.4435   -1.3786    3.1070 C   0  0  0  0  0
   -3.6604    4.2733    1.4908 C   0  0  0  0  0
   -2.0760    1.3550   -0.1818 C   0  0  0  0  0
   -0.7299    1.4713    0.3316 N   0  0  0  0  0
    3.0894   -1.0235   -1.7438 O   0  0  0  0  0
    0.4040    1.3938   -1.7008 O   0  0  0  0  0
    1.6219   -1.0386    0.0115 O   0  0  0  0  0
   -4.0926    1.6273    1.1279 O   0  0  0  0  0
   -2.3163   -0.4561    2.0268 O   0  0  0  0  0
   -2.7433    3.4522    0.7602 O   0  0  0  0  0
  1  2  1  0  0  0
  3  5  1  0  0  0
  4  6  1  0  0  0
  6 24  1  0  0  0
  7 19  1  0  0  0
  8 20  1  0  0  0
  9 25  1  0  0  0
 10 11  1  0  0  0
 10 12  1  0  0  0
 11 13  1  0  0  0
 12 14  1  0  0  0
 13 15  1  0  0  0
 14  7  1  0  0  0
 14 15  1  0  0  0
 15  8  1  0  0  0
 16 24  1  0  0  0
 17 25  1  0  0  0
 18  5  1  0  0  0
 18  9  1  0  0  0
 18 19  1  0  0  0
  1  3  2  0  0  0
  2  4  2  0  0  0
  5  6  2  0  0  0
  7 21  2  0  0  0
  8 22  2  0  0  0
  9 23  2  0  0  0
M  CHG  1  20  -1
M  END
> <rmsd>
0.644651592

$$$$
ZINC04599627


 25 26  0  0  0  0  0  0  0  0999 V2000
   -2.9480   -2.2400    0.6356 C   0  0  0  0  0
   -3.2233   -2.7597   -0.6292 C   0  0  0  0  0
   -2.5758   -0.9029    0.7744 C   0  0  0  0  0
   -3.1260   -1.9423   -1.7554 C   0  0  0  0  0
   -2.4785   -0.0856   -0.3517 C   0  0  0  0  0
   -2.7537   -0.6052   -1.6166 C   0  0  0  0  0
    0.3930    1.4803   -0.4696 C   0  0  0  0  0
    2.4860   -0.5291   -0.7539 C   0  0  0  0  0
   -3.0808    2.1367    0.6556 C   0  0  0  0  0
    2.4748    3.8051   -0.7350 C   0  0  0  0  0
    3.6489    3.0833   -1.3894 C   0  0  0  0  0
    1.9903    3.0860    0.5255 C   0  0  0  0  0
    3.3257    1.6191   -1.6742 C   0  0  0  0  0
    1.6885    1.6021    0.2857 C   0  0  0  0  0
    2.8586    0.9030   -0.4105 C   0  0  0  0  0
   -2.9622   -0.4336   -3.9794 C   0  0  0  0  0
   -3.6555    4.2680    1.5105 C   0  0  0  0  0
   -2.0739    1.3600   -0.1823 C   0  0  0  0  0
   -0.7292    1.4678    0.3366 N   0  0  0  0  0
    3.0899   -1.0199   -1.7478 O   0  0  0  0  0
    0.4113    1.4049   -1.6925 O   0  0  0  0  0
    1.6164   -1.0461    0.0024 O   0  0  0  0  0
   -4.0942    1.6266    1.1229 O   0  0  0  0  0
   -2.6634    0.1793   -2.7268 O   0  0  0  0  0
   -2.7384    3.4507    0.7759 O   0  0  0  0  0
  1  2  1  0  0  0
  3  5  1  0  0  0
  4  6  1  0  0  0
  6 24  1  0  0  0
  7 19  1  0  0  0
  8 20  1  0  0  0
  9 25  1  0  0  0
 10 11  1  0  0  0
 10 12  1  0  0  0
 11 13  1  0  0  0
 12 14  1  0  0  0
 13 15  1  0  0  0
 14  7  1  0  0  0
 14 15  1  0  0  0
 15  8  1  0  0  0
 16 24  1  0  0  0
 17 25  1  0  0  0
 18  5  1  0  0  0
 18  9  1  0  0  0
 18 19  1  0  0  0
  1  3  2  0  0  0
  2  4  2  0  0  0
  5  6  2  0  0  0
  7 21  2  0  0  0
  8 22  2  0  0  0
  9 23  2  0  0  0
M  CHG  1  20  -1
M  END
> <rmsd>
0.642057359

$$$$
ZINC91054499


 24 26  0  0  0  0  0  0  0  0999 V2000
    0.7092    2.4448   -2.7418 C   0  0  0  0  0
    1.5472    1.3456   -2.9292 C   0  0  0  0  0
   -3.2127   -2.2921   -1.7767 C   0  0  0  0  0
   -3.0025   -0.9277   -1.5687 C   0  0  0  0  0
   -3.4848   -1.1712    0.8057 C   0  0  0  0  0
   -3.7004   -2.5188    0.5839 C   0  0  0  0  0
   -0.1891    2.4632   -1.6749 C   0  0  0  0  0
    0.5885    0.2831   -0.9827 C   0  0  0  0  0
   -0.2495    1.3822   -0.7953 C   0  0  0  0  0
    1.4868    0.2647   -2.0496 C   0  0  0  0  0
   -3.5661   -3.0616   -0.6854 C   0  0  0  0  0
   -3.1390   -0.3704   -0.2862 C   0  0  0  0  0
   -4.0113   -3.5964    1.5478 C   0  0  0  0  0
   -4.3946   -4.6992    0.5598 C   0  0  0  0  0
   -1.0742    3.6541   -1.4994 C   0  0  0  0  0
    0.5212   -0.8757   -0.0356 C   0  0  0  0  0
   -1.1762    1.4044    0.3042 N   0  0  0  0  0
    2.3529   -0.8436   -2.2619 N   0  0  0  0  0
    3.4830   -0.8414   -1.7192 O   0  0  0  0  0
    1.9603   -1.7892   -2.9852 O   0  0  0  0  0
   -3.5926    1.7480    1.1395 O   0  0  0  0  0
   -3.1206    2.0286   -1.3095 O   0  0  0  0  0
   -3.7967   -4.4133   -0.7270 O   0  0  0  0  0
   -2.8602    1.3387   -0.0526 S   0  0  0  0  0
  1  7  1  0  0  0
  2 10  1  0  0  0
  3 11  1  0  0  0
  4 12  1  0  0  0
  5  6  1  0  0  0
  8  9  1  0  0  0
  9 17  1  0  0  0
 10 18  1  0  0  0
 11 23  1  0  0  0
 13  6  1  0  0  0
 13 14  1  0  0  0
 14 23  1  0  0  0
 15  7  1  0  0  0
 16  8  1  0  0  0
 18 19  1  0  0  0
 24 12  1  0  0  0
 24 17  1  0  0  0
  1  2  2  0  0  0
  3  4  2  0  0  0
  5 12  2  0  0  0
  6 11  2  0  0  0
  7  9  2  0  0  0
  8 10  2  0  0  0
 18 20  2  0  0  0
 24 21  2  0  0  0
 24 22  2  0  0  0
M  CHG  2  18   1  19  -1
M  END
> <rmsd>
0.406468421

$$$$
ZINC77180402


 24 26  0  0  0  0  0  0  0  0999 V2000
   -5.0476   -3.0241   -0.3825 C   0  0  0  0  0
   -4.5910   -2.2296   -1.4450 C   0  0  0  0  0
    1.3841    3.0143   -3.9207 C   0  0  0  0  0
    1.0080    3.8740   -2.8886 C   0  0  0  0  0
   -4.7344   -2.6941    0.9371 C   0  0  0  0  0
   -3.8158   -1.0928   -1.2036 C   0  0  0  0  0
    1.6829    1.6804   -3.6433 C   0  0  0  0  0
    0.9308    3.3997   -1.5792 C   0  0  0  0  0
   -3.9549   -1.5724    1.1668 C   0  0  0  0  0
   -3.4994   -0.7733    0.1082 C   0  0  0  0  0
    1.6057    1.2061   -2.3339 C   0  0  0  0  0
    1.2296    2.0658   -1.3017 C   0  0  0  0  0
   -3.5259   -1.0121    2.4864 C   0  0  0  0  0
   -2.3702   -0.0924    2.0561 C   0  0  0  0  0
   -2.7152    0.3975    0.6320 C   0  0  0  0  0
   -1.4769    0.7639   -0.1744 C   0  0  0  0  0
   -0.5909    1.5465    0.6226 N   0  0  0  0  0
    1.9166   -0.1593   -2.0833 N   0  0  0  0  0
    3.1012   -0.4713   -1.8171 O   0  0  0  0  0
    0.9969   -1.0093   -2.1360 O   0  0  0  0  0
    1.5582    0.1286    0.4158 O   0  0  0  0  0
    1.7713    2.5102    1.1947 O   0  0  0  0  0
   -3.5873    1.5210    0.7058 O   0  0  0  0  0
    1.1178    1.5099    0.3726 S   0  0  0  0  0
  1  2  1  0  0  0
  3  4  1  0  0  0
  5  9  1  0  0  0
  6 10  1  0  0  0
  7 11  1  0  0  0
  8 12  1  0  0  0
 11 18  1  0  0  0
 13  9  1  0  0  0
 13 14  1  0  0  0
 14 15  1  0  0  0
 15 10  1  0  0  0
 15 16  1  0  0  0
 15 23  1  0  0  0
 16 17  1  0  0  0
 18 19  1  0  0  0
 24 12  1  0  0  0
 24 17  1  0  0  0
  1  5  2  0  0  0
  2  6  2  0  0  0
  3  7  2  0  0  0
  4  8  2  0  0  0
  9 10  2  0  0  0
 11 12  2  0  0  0
 18 20  2  0  0  0
 24 21  2  0  0  0
 24 22  2  0  0  0
M  CHG  2  18   1  19  -1
M  END
> <rmsd>
0.549751341

$$$$
ZINC00073691


 24 25  0  0  0  0  0  0  0  0999 V2000
   -3.5447   -2.5660    0.5378 C   0  0  0  0  0
   -2.9096   -2.3072   -1.7788 C   0  0  0  0  0
   -0.1336    2.4647   -1.6169 C   0  0  0  0  0
    0.8331    2.4724   -2.6225 C   0  0  0  0  0
   -3.3793   -1.1953    0.7364 C   0  0  0  0  0
   -2.7443   -0.9364   -1.5803 C   0  0  0  0  0
    0.8585    0.4717   -0.6784 C   0  0  0  0  0
    1.8251    0.4793   -1.6840 C   0  0  0  0  0
   -3.3098   -3.1219   -0.7198 C   0  0  0  0  0
   -0.1209    1.4643   -0.6448 C   0  0  0  0  0
    1.8124    1.4797   -2.6560 C   0  0  0  0  0
   -2.9792   -0.3805   -0.3227 C   0  0  0  0  0
    2.8528   -0.5770   -1.7044 C   0  0  0  0  0
   -4.9473   -5.0338   -0.6237 C   0  0  0  0  0
   -2.5367   -5.4107   -0.0048 C   0  0  0  0  0
   -3.1911   -5.0959   -2.3826 C   0  0  0  0  0
   -3.4897   -4.6333   -0.9384 C   0  0  0  0  0
   -1.1178    1.4568    0.3917 N   0  0  0  0  0
    2.8282   -1.4806   -0.7884 O   0  0  0  0  0
    3.7392   -0.5585   -2.6372 O   0  0  0  0  0
   -3.5936    1.7220    1.0658 O   0  0  0  0  0
   -2.9711    2.0180   -1.3476 O   0  0  0  0  0
    2.7482    1.5043   -3.6464 O   0  0  0  0  0
   -2.7719    1.3353   -0.0750 S   0  0  0  0  0
  1  9  1  0  0  0
  2  6  1  0  0  0
  3 10  1  0  0  0
  4 11  1  0  0  0
  5 12  1  0  0  0
  7  8  1  0  0  0
  8 13  1  0  0  0
 10 18  1  0  0  0
 11 23  1  0  0  0
 13 19  1  0  0  0
 14 17  1  0  0  0
 15 17  1  0  0  0
 16 17  1  0  0  0
 17  9  1  0  0  0
 24 12  1  0  0  0
 24 18  1  0  0  0
  1  5  2  0  0  0
  2  9  2  0  0  0
  3  4  2  0  0  0
  6 12  2  0  0  0
  7 10  2  0  0  0
  8 11  2  0  0  0
 13 20  2  0  0  0
 24 21  2  0  0  0
 24 22  2  0  0  0
M  CHG  1  19  -1
M  END
> <rmsd>
0.524995148

$$$$
ZINC34800286


 24 26  0  0  0  0  0  0  0  0999 V2000
   -3.2191   -3.0366   -0.4921 C   0  0  0  0  0
   -3.4789   -2.2774   -1.6330 C   0  0  0  0  0
   -2.9864   -2.4034    0.7289 C   0  0  0  0  0
   -3.5060   -0.8851   -1.5531 C   0  0  0  0  0
   -3.0136   -1.0111    0.8088 C   0  0  0  0  0
   -3.2733   -0.2519   -0.3321 C   0  0  0  0  0
    1.2243    1.4318   -0.7895 C   0  0  0  0  0
    3.2437   -0.7947   -1.4966 C   0  0  0  0  0
   -1.9283    1.8643   -0.4999 C   0  0  0  0  0
    0.3878    1.8782    0.4224 C   0  0  0  0  0
    2.7360   -0.4830   -0.1042 C   0  0  0  0  0
    1.4089    1.1031    1.2685 C   0  0  0  0  0
    1.7144   -1.4780    0.4817 C   0  0  0  0  0
    2.4167   -2.7000    1.0823 C   0  0  0  0  0
    0.6356   -1.9383   -0.5077 C   0  0  0  0  0
   -3.3025    1.2564   -0.2457 C   0  0  0  0  0
    2.1411    0.8347    0.0270 N   0  0  0  0  0
   -3.7660    1.7127    1.0418 N   0  0  0  0  0
   -0.9972    1.4162    0.4145 N   0  0  0  0  0
    3.5393    0.2106   -2.2002 O   0  0  0  0  0
    1.0917    1.4765   -1.9917 O   0  0  0  0  0
    3.3058   -2.0252   -1.7744 O   0  0  0  0  0
   -1.7161    2.6818   -1.3932 O   0  0  0  0  0
    0.8607   -0.5493    1.8553 S   0  0  0  0  0
  1  2  1  0  0  0
  3  5  1  0  0  0
  4  6  1  0  0  0
  7 17  1  0  0  0
  8 20  1  0  0  0
  9 19  1  0  0  0
 10  7  1  0  0  0
 10 12  1  0  0  0
 10 19  1  0  0  0
 11  8  1  0  0  0
 11 13  1  0  0  0
 11 17  1  0  0  0
 12 17  1  0  0  0
 12 24  1  0  0  0
 13 14  1  0  0  0
 13 15  1  0  0  0
 13 24  1  0  0  0
 16  6  1  0  0  0
 16  9  1  0  0  0
 16 18  1  0  0  0
  1  3  2  0  0  0
  2  4  2  0  0  0
  5  6  2  0  0  0
  7 21  2  0  0  0
  8 22  2  0  0  0
  9 23  2  0  0  0
M  CHG  1  20  -1
M  END
> <rmsd>
0.364119679

$$$$
ZINC34800286


 24 26  0  0  0  0  0  0  0  0999 V2000
   -3.5959   -3.0671   -0.2079 C   0  0  0  0  0
   -3.7429   -2.3780   -1.4117 C   0  0  0  0  0
   -3.3432   -2.3656    0.9710 C   0  0  0  0  0
   -3.6372   -0.9874   -1.4366 C   0  0  0  0  0
   -3.2375   -0.9749    0.9460 C   0  0  0  0  0
   -3.3845   -0.2858   -0.2577 C   0  0  0  0  0
    1.2681    0.9251   -0.6575 C   0  0  0  0  0
    3.0837   -1.5303   -1.1152 C   0  0  0  0  0
   -1.8354    1.6745   -0.5280 C   0  0  0  0  0
    0.4395    1.5414    0.4832 C   0  0  0  0  0
    2.5632   -1.0646    0.2285 C   0  0  0  0  0
    1.3520    0.7416    1.4250 C   0  0  0  0  0
    1.4310   -1.9101    0.8452 C   0  0  0  0  0
    1.9910   -3.1424    1.5627 C   0  0  0  0  0
    0.3457   -2.3421   -0.1499 C   0  0  0  0  0
   -3.2698    1.2206   -0.2849 C   0  0  0  0  0
    2.0951    0.3095    0.2374 N   0  0  0  0  0
   -3.7288    1.8175    0.9454 N   0  0  0  0  0
   -0.9828    1.2130    0.4539 N   0  0  0  0  0
    3.4987   -0.6153   -1.8791 O   0  0  0  0  0
    1.1802    0.8883   -1.8641 O   0  0  0  0  0
    3.0351   -2.7791   -1.2981 O   0  0  0  0  0
   -1.5153    2.3963   -1.4704 O   0  0  0  0  0
    0.6267   -0.8009    2.1104 S   0  0  0  0  0
  1  2  1  0  0  0
  3  5  1  0  0  0
  4  6  1  0  0  0
  7 17  1  0  0  0
  8 20  1  0  0  0
  9 19  1  0  0  0
 10  7  1  0  0  0
 10 12  1  0  0  0
 10 19  1  0  0  0
 11  8  1  0  0  0
 11 13  1  0  0  0
 11 17  1  0  0  0
 12 17  1  0  0  0
 12 24  1  0  0  0
 13 14  1  0  0  0
 13 15  1  0  0  0
 13 24  1  0  0  0
 16  6  1  0  0  0
 16  9  1  0  0  0
 16 18  1  0  0  0
  1  3  2  0  0  0
  2  4  2  0  0  0
  5  6  2  0  0  0
  7 21  2  0  0  0
  8 22  2  0  0  0
  9 23  2  0  0  0
M  CHG  1  20  -1
M  END
> <rmsd>
0.266201735

$$$$
ZINC35397730


 24 25  0  0  0  0  0  0  0  0999 V2000
   -3.5694   -2.5615    0.5526 C   0  0  0  0  0
   -2.9147   -2.3204   -1.7605 C   0  0  0  0  0
   -3.3971   -1.1907    0.7442 C   0  0  0  0  0
   -2.7424   -0.9495   -1.5689 C   0  0  0  0  0
    0.8687    0.4551   -0.6674 C   0  0  0  0  0
   -0.0896    2.4173   -1.6096 C   0  0  0  0  0
    1.8273    0.4764   -1.6744 C   0  0  0  0  0
   -3.3282   -3.1263   -0.6998 C   0  0  0  0  0
   -0.1114    1.4404   -0.6273 C   0  0  0  0  0
   -2.9837   -0.3847   -0.3165 C   0  0  0  0  0
    1.7622    1.4963   -2.6100 C   0  0  0  0  0
    2.8646   -0.5686   -1.7147 C   0  0  0  0  0
   -2.2335   -5.3808   -0.6244 C   0  0  0  0  0
    2.4962    0.8326   -4.8862 C   0  0  0  0  0
    3.9688    2.2570   -3.4542 C   0  0  0  0  0
   -3.5101   -4.5922   -0.9045 C   0  0  0  0  0
    0.8252    2.4709   -2.6035 N   0  0  0  0  0
   -1.1164    1.4453    0.4015 N   0  0  0  0  0
    2.7361    1.5245   -3.6396 N   0  0  0  0  0
    2.6321   -1.6456   -2.3805 O   0  0  0  0  0
    3.9683   -0.3695   -1.0826 O   0  0  0  0  0
   -3.5957    1.7299    1.0547 O   0  0  0  0  0
   -2.9525    2.0076   -1.3554 O   0  0  0  0  0
   -2.7674    1.3313   -0.0773 S   0  0  0  0  0
  1  8  1  0  0  0
  2  4  1  0  0  0
  3 10  1  0  0  0
  5  9  1  0  0  0
  6 17  1  0  0  0
  7 11  1  0  0  0
  7 12  1  0  0  0
  9 18  1  0  0  0
 11 19  1  0  0  0
 12 20  1  0  0  0
 13 16  1  0  0  0
 14 19  1  0  0  0
 15 19  1  0  0  0
 16  8  1  0  0  0
 24 10  1  0  0  0
 24 18  1  0  0  0
  1  3  2  0  0  0
  2  8  2  0  0  0
  4 10  2  0  0  0
  5  7  2  0  0  0
  6  9  2  0  0  0
 11 17  2  0  0  0
 12 21  2  0  0  0
 24 22  2  0  0  0
 24 23  2  0  0  0
M  CHG  1  20  -1
M  END
> <rmsd>
0.513108075

$$$$
ZINC35397730


 24 25  0  0  0  0  0  0  0  0999 V2000
   -3.2698   -2.5866    0.4417 C   0  0  0  0  0
   -2.4305   -2.2487   -1.7985 C   0  0  0  0  0
   -3.2259   -1.2106    0.6656 C   0  0  0  0  0
   -2.3866   -0.8726   -1.5746 C   0  0  0  0  0
    1.0042    0.7935   -0.3286 C   0  0  0  0  0
   -0.0195    2.6927   -1.3296 C   0  0  0  0  0
    2.0449    0.9102   -1.2433 C   0  0  0  0  0
   -2.8720   -3.1056   -0.7905 C   0  0  0  0  0
   -0.0514    1.6977   -0.3659 C   0  0  0  0  0
   -2.7844   -0.3536   -0.3425 C   0  0  0  0  0
    1.9829    1.9404   -2.1680 C   0  0  0  0  0
    3.1620   -0.0489   -1.2018 C   0  0  0  0  0
   -1.6114   -5.2680   -0.6438 C   0  0  0  0  0
    2.9701    1.3820   -4.3756 C   0  0  0  0  0
    4.1885    2.8890   -2.7969 C   0  0  0  0  0
   -2.9166   -4.5769   -1.0295 C   0  0  0  0  0
    0.9741    2.8378   -2.2349 N   0  0  0  0  0
   -1.1422    1.6030    0.5666 N   0  0  0  0  0
    3.0403    2.0656   -3.1036 N   0  0  0  0  0
    3.0776   -1.1273   -1.8996 O   0  0  0  0  0
    4.1846    0.2238   -0.4689 O   0  0  0  0  0
   -3.6851    1.6785    0.9937 O   0  0  0  0  0
   -2.8515    2.0540   -1.3437 O   0  0  0  0  0
   -2.7289    1.3690   -0.0627 S   0  0  0  0  0
  1  8  1  0  0  0
  2  4  1  0  0  0
  3 10  1  0  0  0
  5  9  1  0  0  0
  6 17  1  0  0  0
  7 11  1  0  0  0
  7 12  1  0  0  0
  9 18  1  0  0  0
 11 19  1  0  0  0
 12 20  1  0  0  0
 13 16  1  0  0  0
 14 19  1  0  0  0
 15 19  1  0  0  0
 16  8  1  0  0  0
 24 10  1  0  0  0
 24 18  1  0  0  0
  1  3  2  0  0  0
  2  8  2  0  0  0
  4 10  2  0  0  0
  5  7  2  0  0  0
  6  9  2  0  0  0
 11 17  2  0  0  0
 12 21  2  0  0  0
 24 22  2  0  0  0
 24 23  2  0  0  0
M  CHG  1  20  -1
M  END
> <rmsd>
0.695349514

$$$$
ZINC91054604


 24 25  0  0  0  0  0  0  0  0999 V2000
    0.7162    2.4544   -2.7343 C   0  0  0  0  0
   -3.2250   -2.2854   -1.7576 C   0  0  0  0  0
   -3.7161   -2.5359    0.5947 C   0  0  0  0  0
    1.5532    1.3549   -2.9244 C   0  0  0  0  0
   -3.0030   -0.9216   -1.5660 C   0  0  0  0  0
   -3.4940   -1.1723    0.7863 C   0  0  0  0  0
   -3.5816   -3.0925   -0.6773 C   0  0  0  0  0
   -0.1833    2.4700   -1.6682 C   0  0  0  0  0
    0.5912    0.2866   -0.9828 C   0  0  0  0  0
   -0.2458    1.3861   -0.7925 C   0  0  0  0  0
    1.4907    0.2710   -2.0488 C   0  0  0  0  0
   -3.1375   -0.3651   -0.2940 C   0  0  0  0  0
   -1.0674    3.6611   -1.4896 C   0  0  0  0  0
    0.5218   -0.8753   -0.0398 C   0  0  0  0  0
   -5.2657   -4.9635   -0.5479 C   0  0  0  0  0
   -2.8302   -5.4258   -0.0896 C   0  0  0  0  0
   -3.8197   -4.5504   -0.8820 C   0  0  0  0  0
   -1.1738    1.4053    0.3060 N   0  0  0  0  0
    2.3560   -0.8373   -2.2638 N   0  0  0  0  0
    3.4855   -0.8382   -1.7200 O   0  0  0  0  0
    1.9632   -1.7800   -2.9908 O   0  0  0  0  0
   -3.5910    1.7482    1.1392 O   0  0  0  0  0
   -3.1151    2.0379   -1.3081 O   0  0  0  0  0
   -2.8575    1.3413   -0.0537 S   0  0  0  0  0
  1  8  1  0  0  0
  2  7  1  0  0  0
  3  6  1  0  0  0
  4 11  1  0  0  0
  5 12  1  0  0  0
  9 10  1  0  0  0
 10 18  1  0  0  0
 11 19  1  0  0  0
 13  8  1  0  0  0
 14  9  1  0  0  0
 15 17  1  0  0  0
 16 17  1  0  0  0
 17  7  1  0  0  0
 19 20  1  0  0  0
 24 12  1  0  0  0
 24 18  1  0  0  0
  1  4  2  0  0  0
  2  5  2  0  0  0
  3  7  2  0  0  0
  6 12  2  0  0  0
  8 10  2  0  0  0
  9 11  2  0  0  0
 19 21  2  0  0  0
 24 22  2  0  0  0
 24 23  2  0  0  0
M  CHG  2  19   1  20  -1
M  END
> <rmsd>
0.402956635

$$$$
ZINC38142442


 24 26  0  0  0  0  0  0  0  0999 V2000
   -3.2958   -3.0205   -0.5063 C   0  0  0  0  0
   -3.5851   -2.2499   -1.6324 C   0  0  0  0  0
   -3.0253   -2.3995    0.7130 C   0  0  0  0  0
   -3.6037   -0.8583   -1.5392 C   0  0  0  0  0
   -3.0439   -1.0079    0.8063 C   0  0  0  0  0
   -3.3330   -0.2372   -0.3199 C   0  0  0  0  0
    2.7291   -0.4992   -0.1865 C   0  0  0  0  0
    2.9570   -1.2559    0.9053 C   0  0  0  0  0
    1.1684    1.3752   -0.8881 C   0  0  0  0  0
    3.3805   -0.8168   -1.5270 C   0  0  0  0  0
   -1.9839    1.8748   -0.5071 C   0  0  0  0  0
    2.2202   -1.0350    2.2154 C   0  0  0  0  0
    0.9728   -0.1460    2.0478 C   0  0  0  0  0
    0.3579    1.8705    0.3478 C   0  0  0  0  0
    1.3679    1.0381    1.1885 C   0  0  0  0  0
   -3.3530    1.2703   -0.2188 C   0  0  0  0  0
    1.8599    0.5391   -0.0897 N   0  0  0  0  0
   -3.7769    1.7168    1.0855 N   0  0  0  0  0
   -1.0290    1.4143    0.3758 N   0  0  0  0  0
    2.7157   -1.5908   -2.2645 O   0  0  0  0  0
    1.1495    1.5703   -2.0808 O   0  0  0  0  0
    4.4948   -0.2618   -1.7147 O   0  0  0  0  0
   -1.7939    2.6996   -1.3989 O   0  0  0  0  0
    4.0546   -2.5942    0.9366 Cl  0  0  0  0  0
  1  2  1  0  0  0
  3  5  1  0  0  0
  4  6  1  0  0  0
  7 10  1  0  0  0
  7 17  1  0  0  0
  8 24  1  0  0  0
  9 17  1  0  0  0
 10 20  1  0  0  0
 11 19  1  0  0  0
 12  8  1  0  0  0
 12 13  1  0  0  0
 13 15  1  0  0  0
 14  9  1  0  0  0
 14 15  1  0  0  0
 14 19  1  0  0  0
 15 17  1  0  0  0
 16  6  1  0  0  0
 16 11  1  0  0  0
 16 18  1  0  0  0
  1  3  2  0  0  0
  2  4  2  0  0  0
  5  6  2  0  0  0
  7  8  2  0  0  0
  9 21  2  0  0  0
 10 22  2  0  0  0
 11 23  2  0  0  0
M  CHG  1  20  -1
M  END
> <rmsd>
0.321037829

$$$$
ZINC38142442


 24 26  0  0  0  0  0  0  0  0999 V2000
   -2.8286   -3.0091   -0.6120 C   0  0  0  0  0
   -3.0930   -2.2395   -1.7449 C   0  0  0  0  0
   -2.7012   -2.3950    0.6339 C   0  0  0  0  0
   -3.2299   -0.8560   -1.6320 C   0  0  0  0  0
   -2.8381   -1.0115    0.7470 C   0  0  0  0  0
   -3.1024   -0.2419   -0.3860 C   0  0  0  0  0
    2.9339   -0.0291    0.2081 C   0  0  0  0  0
    3.1388   -0.7889    1.3024 C   0  0  0  0  0
    1.2854    1.7314   -0.5823 C   0  0  0  0  0
    3.7077   -0.2657   -1.0832 C   0  0  0  0  0
   -1.9165    1.9732   -0.4367 C   0  0  0  0  0
    2.2901   -0.6548    2.5553 C   0  0  0  0  0
    0.9917    0.1368    2.3062 C   0  0  0  0  0
    0.3471    2.1347    0.5953 C   0  0  0  0  0
    1.3544    1.3665    1.4981 C   0  0  0  0  0
   -3.2505    1.2568   -0.2636 C   0  0  0  0  0
    1.9795    0.9353    0.2539 N   0  0  0  0  0
   -3.8059    1.6405    1.0110 N   0  0  0  0  0
   -0.9969    1.5703    0.5097 N   0  0  0  0  0
    3.1644   -1.0736   -1.8813 O   0  0  0  0  0
    1.3408    1.9499   -1.7697 O   0  0  0  0  0
    4.7849    0.3792   -1.1763 O   0  0  0  0  0
   -1.7265    2.8293   -1.2984 O   0  0  0  0  0
    4.3346   -2.0370    1.3972 Cl  0  0  0  0  0
  1  2  1  0  0  0
  3  5  1  0  0  0
  4  6  1  0  0  0
  7 10  1  0  0  0
  7 17  1  0  0  0
  8 24  1  0  0  0
  9 17  1  0  0  0
 10 20  1  0  0  0
 11 19  1  0  0  0
 12  8  1  0  0  0
 12 13  1  0  0  0
 13 15  1  0  0  0
 14  9  1  0  0  0
 14 15  1  0  0  0
 14 19  1  0  0  0
 15 17  1  0  0  0
 16  6  1  0  0  0
 16 11  1  0  0  0
 16 18  1  0  0  0
  1  3  2  0  0  0
  2  4  2  0  0  0
  5  6  2  0  0  0
  7  8  2  0  0  0
  9 21  2  0  0  0
 10 22  2  0  0  0
 11 23  2  0  0  0
M  CHG  1  20  -1
M  END
> <rmsd>
0.563936412

$$$$
ZINC08106318


 24 25  0  0  0  0  0  0  0  0999 V2000
   -3.9162   -2.2541    0.4269 C   0  0  0  0  0
   -5.1800   -1.0943   -1.2746 C   0  0  0  0  0
   -0.0794    1.7689   -2.3120 C   0  0  0  0  0
   -3.6821   -1.0432    1.0785 C   0  0  0  0  0
   -4.9460    0.1166   -0.6229 C   0  0  0  0  0
    0.8366    1.7300   -3.3632 C   0  0  0  0  0
    1.6339    1.0021   -0.7908 C   0  0  0  0  0
   -4.6650   -2.2796   -0.7498 C   0  0  0  0  0
    0.3193    1.4051   -1.0257 C   0  0  0  0  0
    2.5497    0.9631   -1.8421 C   0  0  0  0  0
   -4.1971    0.1421    0.5537 C   0  0  0  0  0
    2.1511    1.3269   -3.1283 C   0  0  0  0  0
   -1.9508    1.8136   -0.0160 C   0  0  0  0  0
   -3.8334   -3.9004   -2.4725 C   0  0  0  0  0
   -2.5583    3.0535    2.0943 C   0  0  0  0  0
   -4.9154   -3.5742   -1.4461 C   0  0  0  0  0
   -2.6132    1.7239    1.3566 C   0  0  0  0  0
   -0.6104    1.4460    0.0407 N   0  0  0  0  0
    3.8819    0.5456   -1.5632 N   0  0  0  0  0
    4.1648   -0.6719   -1.6518 O   0  0  0  0  0
   -2.5859    2.1597   -1.0079 O   0  0  0  0  0
    4.7302    1.4086   -1.2381 O   0  0  0  0  0
   -3.9673    1.3322    1.1958 O   0  0  0  0  0
    3.2483    1.2950   -4.4637 Cl  0  0  0  0  0
  1  8  1  0  0  0
  2  5  1  0  0  0
  3  9  1  0  0  0
  4 11  1  0  0  0
  6 12  1  0  0  0
  7 10  1  0  0  0
  9 18  1  0  0  0
 10 19  1  0  0  0
 11 23  1  0  0  0
 12 24  1  0  0  0
 13 18  1  0  0  0
 14 16  1  0  0  0
 15 17  1  0  0  0
 16  8  1  0  0  0
 17 13  1  0  0  0
 17 23  1  0  0  0
 19 20  1  0  0  0
  1  4  2  0  0  0
  2  8  2  0  0  0
  3  6  2  0  0  0
  5 11  2  0  0  0
  7  9  2  0  0  0
 10 12  2  0  0  0
 13 21  2  0  0  0
 19 22  2  0  0  0
M  CHG  2  19   1  20  -1
M  END
> <rmsd>
0.684607565

$$$$
ZINC86614002


 24 25  0  0  0  0  0  0  0  0999 V2000
    2.0654    3.0761   -1.6197 C   0  0  0  0  0
    2.5718    1.9073   -2.1881 C   0  0  0  0  0
   -3.0471   -0.9250    1.0348 C   0  0  0  0  0
   -4.1327   -0.1045   -0.9615 C   0  0  0  0  0
   -2.7773   -2.1329    0.3915 C   0  0  0  0  0
   -3.8628   -1.3123   -1.6047 C   0  0  0  0  0
    0.9763    3.0139   -0.7504 C   0  0  0  0  0
    0.8999    0.6140   -1.0179 C   0  0  0  0  0
    0.3936    1.7829   -0.4495 C   0  0  0  0  0
    1.9891    0.6762   -1.8872 C   0  0  0  0  0
   -3.7250    0.0892    0.3582 C   0  0  0  0  0
   -3.1850   -2.3265   -0.9282 C   0  0  0  0  0
   -1.9536    2.3299    0.2792 C   0  0  0  0  0
    0.4569    4.2837   -0.1576 C   0  0  0  0  0
    0.2726   -0.7074   -0.6936 C   0  0  0  0  0
   -3.3661    3.2913    2.1340 C   0  0  0  0  0
   -2.8759    2.0205    1.4559 C   0  0  0  0  0
   -0.7114    1.7229    0.4329 N   0  0  0  0  0
    2.5244   -0.5009   -2.4800 N   0  0  0  0  0
    3.4370   -1.1184   -1.8825 O   0  0  0  0  0
   -2.3318    3.0230   -0.6609 O   0  0  0  0  0
    2.0673   -0.8853   -3.5821 O   0  0  0  0  0
   -3.9911    1.2769    0.9908 O   0  0  0  0  0
   -2.8534   -3.8173   -1.7215 Cl  0  0  0  0  0
  1  7  1  0  0  0
  2 10  1  0  0  0
  3 11  1  0  0  0
  4  6  1  0  0  0
  5 12  1  0  0  0
  8  9  1  0  0  0
  9 18  1  0  0  0
 10 19  1  0  0  0
 11 23  1  0  0  0
 12 24  1  0  0  0
 13 18  1  0  0  0
 14  7  1  0  0  0
 15  8  1  0  0  0
 16 17  1  0  0  0
 17 13  1  0  0  0
 17 23  1  0  0  0
 19 20  1  0  0  0
  1  2  2  0  0  0
  3  5  2  0  0  0
  4 11  2  0  0  0
  6 12  2  0  0  0
  7  9  2  0  0  0
  8 10  2  0  0  0
 13 21  2  0  0  0
 19 22  2  0  0  0
M  CHG  2  19   1  20  -1
M  END
> <rmsd>
0.417409509

$$$$
ZINC89269093


 24 26  0  0  0  0  0  0  0  0999 V2000
   -3.1439   -0.6523   -1.6301 C   0  0  0  0  0
   -2.8485   -0.9565    0.7485 C   0  0  0  0  0
    0.0647    0.9266   -1.4835 C   0  0  0  0  0
    0.9583    0.0558   -2.1068 C   0  0  0  0  0
   -2.8823   -2.0069   -1.8358 C   0  0  0  0  0
   -2.5870   -2.3110    0.5427 C   0  0  0  0  0
    0.5389   -0.1109    0.6462 C   0  0  0  0  0
   -3.1270   -0.1271   -0.3379 C   0  0  0  0  0
   -0.1450    0.8434   -0.1070 C   0  0  0  0  0
    1.6423   -0.8986   -1.3537 C   0  0  0  0  0
    1.4325   -0.9818    0.0228 C   0  0  0  0  0
   -2.6039   -2.8363   -0.7494 C   0  0  0  0  0
   -2.7072    3.4631    0.6153 C   0  0  0  0  0
   -3.5727    2.8243    1.6842 C   0  0  0  0  0
   -3.4117    1.3387   -0.1146 C   0  0  0  0  0
   -2.1903    2.2624   -0.1470 C   0  0  0  0  0
    1.4606   -3.1734    0.9458 C   0  0  0  0  0
   -1.0293    1.7072    0.5100 N   0  0  0  0  0
    2.5492   -1.7780   -2.0065 N   0  0  0  0  0
    3.7506   -1.4367   -2.1170 O   0  0  0  0  0
    2.1208   -2.8687   -2.4521 O   0  0  0  0  0
   -4.0804    1.5988    1.1366 O   0  0  0  0  0
    2.0904   -1.9051    0.7801 O   0  0  0  0  0
   -2.2814   -4.5072   -1.0035 Cl  0  0  0  0  0
  1  8  1  0  0  0
  2  6  1  0  0  0
  3  9  1  0  0  0
  4 10  1  0  0  0
  5 12  1  0  0  0
  7 11  1  0  0  0
  9 18  1  0  0  0
 10 19  1  0  0  0
 11 23  1  0  0  0
 12 24  1  0  0  0
 13 14  1  0  0  0
 13 16  1  0  0  0
 14 22  1  0  0  0
 15  8  1  0  0  0
 15 16  1  0  0  0
 15 22  1  0  0  0
 16 18  1  0  0  0
 17 23  1  0  0  0
 19 20  1  0  0  0
  1  5  2  0  0  0
  2  8  2  0  0  0
  3  4  2  0  0  0
  6 12  2  0  0  0
  7  9  2  0  0  0
 10 11  2  0  0  0
 19 21  2  0  0  0
M  CHG  2  19   1  20  -1
M  END
> <rmsd>
0.669914782

$$$$
ZINC00459009


 24 25  0  0  0  0  0  0  0  0999 V2000
    1.6615    2.5867   -1.4515 C   0  0  0  0  0
    0.5185    2.6298   -0.6532 C   0  0  0  0  0
    2.2882    1.3670   -1.7070 C   0  0  0  0  0
   -3.1204   -3.1554   -0.5727 C   0  0  0  0  0
   -2.9004   -0.9411   -1.5135 C   0  0  0  0  0
    0.6289    0.2335   -0.3657 C   0  0  0  0  0
   -3.0260   -2.3197   -1.6853 C   0  0  0  0  0
   -3.0892   -2.6128    0.7120 C   0  0  0  0  0
   -2.9636   -1.2343    0.8839 C   0  0  0  0  0
    0.0022    1.4533   -0.1103 C   0  0  0  0  0
    1.7719    0.1904   -1.1640 C   0  0  0  0  0
   -2.8692   -0.3984   -0.2288 C   0  0  0  0  0
   -3.0589   -2.8923   -3.0408 C   0  0  0  0  0
   -3.1923   -3.5305    1.8861 C   0  0  0  0  0
   -2.9318   -0.6613    2.2656 C   0  0  0  0  0
   -1.1761    1.4981    0.7131 N   0  0  0  0  0
    2.4096   -1.0510   -1.4254 N   0  0  0  0  0
   -2.9703   -2.0986   -4.0512 O   0  0  0  0  0
    3.4361   -1.0674   -2.1470 O   0  0  0  0  0
   -3.1753   -4.1682   -3.1720 O   0  0  0  0  0
    1.9297   -2.0980   -0.9273 O   0  0  0  0  0
   -3.7347    1.7795    0.8819 O   0  0  0  0  0
   -2.6597    1.9322   -1.3809 O   0  0  0  0  0
   -2.7095    1.3360   -0.0532 S   0  0  0  0  0
  1  3  1  0  0  0
  2 10  1  0  0  0
  4  8  1  0  0  0
  5  7  1  0  0  0
  6 11  1  0  0  0
  7 13  1  0  0  0
  9 12  1  0  0  0
 10 16  1  0  0  0
 11 17  1  0  0  0
 13 18  1  0  0  0
 14  8  1  0  0  0
 15  9  1  0  0  0
 17 19  1  0  0  0
 24 12  1  0  0  0
 24 16  1  0  0  0
  1  2  2  0  0  0
  3 11  2  0  0  0
  4  7  2  0  0  0
  5 12  2  0  0  0
  6 10  2  0  0  0
  8  9  2  0  0  0
 13 20  2  0  0  0
 17 21  2  0  0  0
 24 22  2  0  0  0
 24 23  2  0  0  0
M  CHG  3  17   1  18  -1  19  -1
M  END
> <rmsd>
0.563579559

$$$$
ZINC04742774


 24 25  0  0  0  0  0  0  0  0999 V2000
    0.7128    2.4557   -2.7188 C   0  0  0  0  0
   -3.7346   -2.5317    0.6047 C   0  0  0  0  0
   -0.1846    2.4609   -1.6510 C   0  0  0  0  0
    1.5543    1.3609   -2.9174 C   0  0  0  0  0
   -3.5070   -1.1684    0.7918 C   0  0  0  0  0
   -3.0022   -0.9302   -1.5588 C   0  0  0  0  0
   -3.2298   -2.2935   -1.7459 C   0  0  0  0  0
   -3.5959   -3.0944   -0.6640 C   0  0  0  0  0
    0.6008    0.2768   -0.9803 C   0  0  0  0  0
   -0.2406    1.3715   -0.7818 C   0  0  0  0  0
    1.4982    0.2716   -2.0480 C   0  0  0  0  0
   -3.1408   -0.3675   -0.2900 C   0  0  0  0  0
   -3.0776   -2.8554   -3.0812 C   0  0  0  0  0
   -3.8454   -4.5571   -0.8360 C   0  0  0  0  0
    0.5362   -0.8904   -0.0435 C   0  0  0  0  0
   -4.1980   -2.8742   -3.9049 N   0  0  0  0  0
   -1.1737    1.3984    0.3122 N   0  0  0  0  0
    2.3671   -0.8324   -2.2715 N   0  0  0  0  0
    3.4974   -0.8327   -1.7292 O   0  0  0  0  0
   -1.9911   -3.3178   -3.4674 O   0  0  0  0  0
    1.9764   -1.7720   -3.0033 O   0  0  0  0  0
   -3.5936    1.7531    1.1326 O   0  0  0  0  0
   -3.1052    2.0312   -1.3135 O   0  0  0  0  0
   -2.8560    1.3389   -0.0551 S   0  0  0  0  0
  1  4  1  0  0  0
  2  8  1  0  0  0
  3 10  1  0  0  0
  5 12  1  0  0  0
  6  7  1  0  0  0
  7 13  1  0  0  0
  9 11  1  0  0  0
 10 17  1  0  0  0
 11 18  1  0  0  0
 13 16  1  0  0  0
 14  8  1  0  0  0
 15  9  1  0  0  0
 18 19  1  0  0  0
 24 12  1  0  0  0
 24 17  1  0  0  0
  1  3  2  0  0  0
  2  5  2  0  0  0
  4 11  2  0  0  0
  6 12  2  0  0  0
  7  8  2  0  0  0
  9 10  2  0  0  0
 13 20  2  0  0  0
 18 21  2  0  0  0
 24 22  2  0  0  0
 24 23  2  0  0  0
M  CHG  2  18   1  19  -1
M  END
> <rmsd>
0.395556003

$$$$
ZINC04742774


 24 25  0  0  0  0  0  0  0  0999 V2000
    0.7124    2.4554   -2.7192 C   0  0  0  0  0
   -3.2300   -2.2922   -1.7470 C   0  0  0  0  0
   -0.1849    2.4609   -1.6514 C   0  0  0  0  0
    1.5538    1.3607   -2.9177 C   0  0  0  0  0
   -3.0024   -0.9290   -1.5588 C   0  0  0  0  0
   -3.5074   -1.1689    0.7916 C   0  0  0  0  0
   -3.7351   -2.5322    0.6035 C   0  0  0  0  0
   -3.5965   -3.0938   -0.6658 C   0  0  0  0  0
    0.6005    0.2768   -0.9803 C   0  0  0  0  0
   -0.2408    1.3716   -0.7819 C   0  0  0  0  0
    1.4979    0.2715   -2.0482 C   0  0  0  0  0
   -3.1410   -0.3673   -0.2896 C   0  0  0  0  0
   -4.1169   -3.3463    1.7495 C   0  0  0  0  0
   -3.8343   -4.5505   -0.8955 C   0  0  0  0  0
    0.5360   -0.8902   -0.0434 C   0  0  0  0  0
   -5.4739   -3.4765    2.0250 N   0  0  0  0  0
   -1.1738    1.3986    0.3122 N   0  0  0  0  0
    2.3668   -0.8326   -2.2715 N   0  0  0  0  0
    3.4971   -0.8328   -1.7294 O   0  0  0  0  0
   -3.2625   -3.8924    2.4672 O   0  0  0  0  0
    1.9760   -1.7723   -3.0032 O   0  0  0  0  0
   -3.5936    1.7536    1.1327 O   0  0  0  0  0
   -3.1054    2.0313   -1.3135 O   0  0  0  0  0
   -2.8561    1.3392   -0.0550 S   0  0  0  0  0
  1  4  1  0  0  0
  2  8  1  0  0  0
  3 10  1  0  0  0
  5 12  1  0  0  0
  6  7  1  0  0  0
  7 13  1  0  0  0
  9 11  1  0  0  0
 10 17  1  0  0  0
 11 18  1  0  0  0
 13 16  1  0  0  0
 14  8  1  0  0  0
 15  9  1  0  0  0
 18 19  1  0  0  0
 24 12  1  0  0  0
 24 17  1  0  0  0
  1  3  2  0  0  0
  2  5  2  0  0  0
  4 11  2  0  0  0
  6 12  2  0  0  0
  7  8  2  0  0  0
  9 10  2  0  0  0
 13 20  2  0  0  0
 18 21  2  0  0  0
 24 22  2  0  0  0
 24 23  2  0  0  0
M  CHG  2  18   1  19  -1
M  END
> <rmsd>
0.395838171

$$$$
ZINC04344112


 24 25  0  0  0  0  0  0  0  0999 V2000
   -3.2457   -2.5913    0.4283 C   0  0  0  0  0
   -2.4282   -2.2419   -1.8182 C   0  0  0  0  0
   -0.0534    2.7224   -1.3501 C   0  0  0  0  0
    0.9953    2.8209   -2.2643 C   0  0  0  0  0
   -3.2049   -1.2159    0.6571 C   0  0  0  0  0
   -2.3875   -0.8665   -1.5894 C   0  0  0  0  0
    1.0001    0.7923   -0.3491 C   0  0  0  0  0
   -2.8572   -3.1043   -0.8093 C   0  0  0  0  0
   -0.0510    1.7082   -0.3924 C   0  0  0  0  0
    2.0465    1.9050   -2.2210 C   0  0  0  0  0
    2.0489    0.8907   -1.2635 C   0  0  0  0  0
   -2.7759   -0.3536   -0.3518 C   0  0  0  0  0
    3.2262    2.9795   -4.1649 C   0  0  0  0  0
   -2.8985   -4.5748   -1.0535 C   0  0  0  0  0
    4.4922    2.7663   -4.9561 C   0  0  0  0  0
    3.0845    2.0262   -3.1503 N   0  0  0  0  0
   -1.1329    1.6058    0.5496 N   0  0  0  0  0
    3.1085   -0.0576   -1.1983 N   0  0  0  0  0
    3.0148   -1.1155   -1.8635 O   0  0  0  0  0
    2.4640    3.9017   -4.4358 O   0  0  0  0  0
    4.1024    0.1947   -0.4780 O   0  0  0  0  0
   -3.6720    1.6701    1.0001 O   0  0  0  0  0
   -2.8612    2.0574   -1.3434 O   0  0  0  0  0
   -2.7245    1.3681   -0.0662 S   0  0  0  0  0
  1  8  1  0  0  0
  2  6  1  0  0  0
  3  9  1  0  0  0
  4 10  1  0  0  0
  5 12  1  0  0  0
  7 11  1  0  0  0
  9 17  1  0  0  0
 10 16  1  0  0  0
 11 18  1  0  0  0
 13 16  1  0  0  0
 14  8  1  0  0  0
 15 13  1  0  0  0
 18 19  1  0  0  0
 24 12  1  0  0  0
 24 17  1  0  0  0
  1  5  2  0  0  0
  2  8  2  0  0  0
  3  4  2  0  0  0
  6 12  2  0  0  0
  7  9  2  0  0  0
 10 11  2  0  0  0
 13 20  2  0  0  0
 18 21  2  0  0  0
 24 22  2  0  0  0
 24 23  2  0  0  0
M  CHG  2  18   1  19  -1
M  END
> <rmsd>
0.712895393

$$$$
ZINC32962239


 24 25  0  0  0  0  0  0  0  0999 V2000
   -0.0381    2.7671   -1.2906 C   0  0  0  0  0
    1.0209    2.8838   -2.1907 C   0  0  0  0  0
   -3.2453   -2.5879    0.4343 C   0  0  0  0  0
   -2.4223   -2.2389   -1.8103 C   0  0  0  0  0
   -3.2073   -1.2124    0.6621 C   0  0  0  0  0
   -2.3843   -0.8633   -1.5824 C   0  0  0  0  0
    0.9953    0.8066   -0.3286 C   0  0  0  0  0
    2.0544    0.9233   -1.2288 C   0  0  0  0  0
   -0.0510    1.7286   -0.3595 C   0  0  0  0  0
    2.0673    1.9619   -2.1599 C   0  0  0  0  0
   -2.8528   -3.1012   -0.8020 C   0  0  0  0  0
   -2.7768   -0.3501   -0.3461 C   0  0  0  0  0
    3.1488   -0.0642   -1.1746 C   0  0  0  0  0
    4.2939    2.8901   -2.7437 C   0  0  0  0  0
    3.0732    1.4318   -4.3660 C   0  0  0  0  0
   -3.3410   -5.2673    0.0497 C   0  0  0  0  0
   -1.1357    1.6091    0.5611 N   0  0  0  0  0
    3.1301    2.0968   -3.0807 N   0  0  0  0  0
    3.0530   -1.1304   -1.8879 O   0  0  0  0  0
    4.1592    0.1761   -0.4156 O   0  0  0  0  0
   -3.6864    1.6728    0.9979 O   0  0  0  0  0
   -2.8581    2.0603   -1.3395 O   0  0  0  0  0
   -2.8901   -4.4434   -1.0244 O   0  0  0  0  0
   -2.7295    1.3955   -0.0570 S   0  0  0  0  0
  1  9  1  0  0  0
  2 10  1  0  0  0
  3 11  1  0  0  0
  4  6  1  0  0  0
  5 12  1  0  0  0
  7  8  1  0  0  0
  8 13  1  0  0  0
  9 17  1  0  0  0
 10 18  1  0  0  0
 11 23  1  0  0  0
 13 19  1  0  0  0
 14 18  1  0  0  0
 15 18  1  0  0  0
 16 23  1  0  0  0
 24 12  1  0  0  0
 24 17  1  0  0  0
  1  2  2  0  0  0
  3  5  2  0  0  0
  4 11  2  0  0  0
  6 12  2  0  0  0
  7  9  2  0  0  0
  8 10  2  0  0  0
 13 20  2  0  0  0
 24 21  2  0  0  0
 24 22  2  0  0  0
M  CHG  1  19  -1
M  END
> <rmsd>
0.706983268

$$$$
ZINC32962239


 24 25  0  0  0  0  0  0  0  0999 V2000
   -0.1068    2.5013   -1.5746 C   0  0  0  0  0
    0.8687    2.5242   -2.5712 C   0  0  0  0  0
   -3.5408   -2.5655    0.5405 C   0  0  0  0  0
   -2.9082   -2.3077   -1.7770 C   0  0  0  0  0
   -3.3756   -1.1947    0.7381 C   0  0  0  0  0
   -2.7430   -0.9368   -1.5793 C   0  0  0  0  0
    0.8583    0.4767   -0.6764 C   0  0  0  0  0
    1.8338    0.4996   -1.6732 C   0  0  0  0  0
   -0.1121    1.4776   -0.6271 C   0  0  0  0  0
    1.8391    1.5234   -2.6206 C   0  0  0  0  0
   -3.3072   -3.1220   -0.7171 C   0  0  0  0  0
   -2.9767   -0.3803   -0.3217 C   0  0  0  0  0
    2.8490   -0.5701   -1.7024 C   0  0  0  0  0
    4.0658    2.2671   -3.4261 C   0  0  0  0  0
    2.5890    0.8909   -4.9004 C   0  0  0  0  0
   -3.8786   -5.2333    0.2166 C   0  0  0  0  0
   -1.1113    1.4541    0.3924 N   0  0  0  0  0
    2.8177    1.5639   -3.6386 N   0  0  0  0  0
    2.6046   -1.6335   -2.3838 O   0  0  0  0  0
    3.9419   -0.4013   -1.0453 O   0  0  0  0  0
   -3.5970    1.7229    1.0631 O   0  0  0  0  0
   -2.9650    2.0176   -1.3481 O   0  0  0  0  0
   -3.4687   -4.4595   -0.9100 O   0  0  0  0  0
   -2.7678    1.3593   -0.0709 S   0  0  0  0  0
  1  9  1  0  0  0
  2 10  1  0  0  0
  3 11  1  0  0  0
  4  6  1  0  0  0
  5 12  1  0  0  0
  7  8  1  0  0  0
  8 13  1  0  0  0
  9 17  1  0  0  0
 10 18  1  0  0  0
 11 23  1  0  0  0
 13 19  1  0  0  0
 14 18  1  0  0  0
 15 18  1  0  0  0
 16 23  1  0  0  0
 24 12  1  0  0  0
 24 17  1  0  0  0
  1  2  2  0  0  0
  3  5  2  0  0  0
  4 11  2  0  0  0
  6 12  2  0  0  0
  7  9  2  0  0  0
  8 10  2  0  0  0
 13 20  2  0  0  0
 24 21  2  0  0  0
 24 22  2  0  0  0
M  CHG  1  19  -1
M  END
> <rmsd>
0.525731385

$$$$
ZINC81998540


 24 25  0  0  0  0  0  0  0  0999 V2000
    1.3813   -2.0935   -0.4638 C   0  0  0  0  0
    0.6755   -0.9005   -0.3413 C   0  0  0  0  0
   -4.0187   -3.0539   -1.2155 C   0  0  0  0  0
   -5.0034   -3.2673   -0.2509 C   0  0  0  0  0
   -4.7499   -0.9890    0.5120 C   0  0  0  0  0
    2.6369   -2.0695   -1.0541 C   0  0  0  0  0
    2.4924    0.2500   -1.3890 C   0  0  0  0  0
    1.2330    0.2862   -0.8076 C   0  0  0  0  0
   -3.7651   -0.7756   -0.4526 C   0  0  0  0  0
   -3.3994   -1.8081   -1.3163 C   0  0  0  0  0
   -5.3690   -2.2349    0.6128 C   0  0  0  0  0
    0.4955    1.5702   -0.6862 C   0  0  0  0  0
   -3.4297    1.5828    0.2583 C   0  0  0  0  0
   -2.8736   -1.1560   -3.5421 C   0  0  0  0  0
   -2.5526    2.7617   -0.1511 C   0  0  0  0  0
   -1.2244    2.8216    0.5913 C   0  0  0  0  0
    3.1502   -0.9127   -1.4943 N   0  0  0  0  0
   -3.1538    0.4776   -0.5418 N   0  0  0  0  0
   -0.4173    1.6541    0.3581 N   0  0  0  0  0
    4.3156   -0.9188   -2.0373 O   0  0  0  0  0
    0.7063    2.4627   -1.5031 O   0  0  0  0  0
   -4.2488    1.6689    1.1667 O   0  0  0  0  0
   -2.4395   -1.6205   -2.2657 O   0  0  0  0  0
   -6.5832   -2.4994    1.8035 Cl  0  0  0  0  0
  1  6  1  0  0  0
  2  8  1  0  0  0
  3 10  1  0  0  0
  4 11  1  0  0  0
  5  9  1  0  0  0
  7 17  1  0  0  0
  8 12  1  0  0  0
  9 18  1  0  0  0
 10 23  1  0  0  0
 11 24  1  0  0  0
 12 19  1  0  0  0
 13 18  1  0  0  0
 14 23  1  0  0  0
 15 13  1  0  0  0
 15 16  1  0  0  0
 16 19  1  0  0  0
 17 20  1  0  0  0
  1  2  2  0  0  0
  3  4  2  0  0  0
  5 11  2  0  0  0
  6 17  2  0  0  0
  7  8  2  0  0  0
  9 10  2  0  0  0
 12 21  2  0  0  0
 13 22  2  0  0  0
M  CHG  2  17   1  20  -1
M  END
> <rmsd>
0.658428073

$$$$
ZINC89229689


 25 26  0  0  0  0  0  0  0  0999 V2000
   -3.3569   -0.8305   -1.5381 C   0  0  0  0  0
   -3.6692   -0.9644    0.8539 C   0  0  0  0  0
   -3.3921   -2.2224   -1.6206 C   0  0  0  0  0
   -3.7045   -2.3564    0.7713 C   0  0  0  0  0
   -3.4954   -0.2014   -0.3008 C   0  0  0  0  0
    2.6104    0.1566    0.4139 C   0  0  0  0  0
   -3.5659   -2.9854   -0.4659 C   0  0  0  0  0
    1.2592    0.4784    0.6431 C   0  0  0  0  0
    3.0497   -0.3530    1.6113 C   0  0  0  0  0
    0.2856    1.0663   -0.3130 C   0  0  0  0  0
    6.4659   -0.4234    3.4083 C   0  0  0  0  0
   -4.5841    1.9596   -1.0455 C   0  0  0  0  0
    4.3565   -0.8737    2.0494 C   0  0  0  0  0
    5.1348    0.1304    2.9253 C   0  0  0  0  0
   -2.0551    1.8242   -0.6330 C   0  0  0  0  0
   -3.4577    1.3276   -0.2094 C   0  0  0  0  0
    0.8659    0.1967    1.8880 N   0  0  0  0  0
    1.9767   -0.3076    2.4519 N   0  0  0  0  0
   -0.9788    1.2757    0.1904 N   0  0  0  0  0
    3.3792    0.3054   -0.7530 N   0  0  0  0  0
    3.4251   -0.6357   -1.5925 O   0  0  0  0  0
    0.6437    1.3051   -1.4633 O   0  0  0  0  0
    4.0143    1.3783   -0.9476 O   0  0  0  0  0
   -3.6815    1.7259    1.1502 O   0  0  0  0  0
   -3.6024   -4.3221   -0.5454 F   0  0  0  0  0
  1  5  1  0  0  0
  2  4  1  0  0  0
  3  7  1  0  0  0
  6  8  1  0  0  0
  6 20  1  0  0  0
  7 25  1  0  0  0
  8 10  1  0  0  0
  9 18  1  0  0  0
 10 19  1  0  0  0
 11 14  1  0  0  0
 12 16  1  0  0  0
 13  9  1  0  0  0
 13 14  1  0  0  0
 15 16  1  0  0  0
 15 19  1  0  0  0
 16  5  1  0  0  0
 16 24  1  0  0  0
 18 17  1  0  0  0
 20 21  1  0  0  0
  1  3  2  0  0  0
  2  5  2  0  0  0
  4  7  2  0  0  0
  6  9  2  0  0  0
  8 17  2  0  0  0
 10 22  2  0  0  0
 20 23  2  0  0  0
M  CHG  2  20   1  21  -1
M  END
> <rmsd>
0.32810384

$$$$
ZINC26527717


 24 25  0  0  0  0  0  0  0  0999 V2000
    0.8676    2.4991   -2.5775 C   0  0  0  0  0
    1.8386    1.4985   -2.6178 C   0  0  0  0  0
   -0.1083    2.4841   -1.5810 C   0  0  0  0  0
    0.8575    0.4680   -0.6651 C   0  0  0  0  0
   -3.0317   -2.6486    0.5473 C   0  0  0  0  0
   -3.2609   -0.8635   -1.5843 C   0  0  0  0  0
    1.8336    0.4829   -1.6616 C   0  0  0  0  0
   -2.8622   -1.2808    0.7618 C   0  0  0  0  0
   -0.1133    1.4687   -0.6248 C   0  0  0  0  0
   -3.3156   -3.1239   -0.7331 C   0  0  0  0  0
   -3.4302   -2.2314   -1.7988 C   0  0  0  0  0
   -2.9769   -0.3883   -0.3040 C   0  0  0  0  0
    2.8583   -0.5729   -1.7049 C   0  0  0  0  0
   -2.5598   -0.8043    2.1448 C   0  0  0  0  0
   -4.7994   -4.9815   -0.7915 C   0  0  0  0  0
   -3.8075   -1.7057   -4.0872 C   0  0  0  0  0
   -1.1127    1.4531    0.3947 N   0  0  0  0  0
    2.8320   -1.4989   -0.8103 O   0  0  0  0  0
    3.7477   -0.5355   -2.6355 O   0  0  0  0  0
   -3.5988    1.7264    1.0626 O   0  0  0  0  0
   -2.9665    2.0007   -1.3508 O   0  0  0  0  0
   -3.4784   -4.4620   -0.9298 O   0  0  0  0  0
   -3.7068   -2.6833   -3.0536 O   0  0  0  0  0
   -2.7692    1.3535   -0.0679 S   0  0  0  0  0
  1  2  1  0  0  0
  3  9  1  0  0  0
  4  7  1  0  0  0
  5  8  1  0  0  0
  6 12  1  0  0  0
  7 13  1  0  0  0
  9 17  1  0  0  0
 10 11  1  0  0  0
 10 22  1  0  0  0
 11 23  1  0  0  0
 13 18  1  0  0  0
 14  8  1  0  0  0
 15 22  1  0  0  0
 16 23  1  0  0  0
 24 12  1  0  0  0
 24 17  1  0  0  0
  1  3  2  0  0  0
  2  7  2  0  0  0
  4  9  2  0  0  0
  5 10  2  0  0  0
  6 11  2  0  0  0
  8 12  2  0  0  0
 13 19  2  0  0  0
 24 20  2  0  0  0
 24 21  2  0  0  0
M  CHG  1  18  -1
M  END
> <rmsd>
0.521155059

$$$$
ZINC65844515


 24 25  0  0  0  0  0  0  0  0999 V2000
    0.7109    2.5019   -2.6953 C   0  0  0  0  0
    1.5522    1.4099   -2.9081 C   0  0  0  0  0
   -0.1895    2.4915   -1.6300 C   0  0  0  0  0
   -3.7406   -2.5298    0.6065 C   0  0  0  0  0
   -3.5119   -1.1668    0.7957 C   0  0  0  0  0
   -3.0233   -0.9222   -1.5577 C   0  0  0  0  0
    1.4929    0.3073   -2.0558 C   0  0  0  0  0
    0.5924    0.2968   -0.9906 C   0  0  0  0  0
   -0.2488    1.3890   -0.7776 C   0  0  0  0  0
   -3.6107   -3.0889   -0.6647 C   0  0  0  0  0
   -3.2520   -2.2852   -1.7468 C   0  0  0  0  0
   -3.1533   -0.3631   -0.2864 C   0  0  0  0  0
    2.3912   -0.8354   -2.3034 C   0  0  0  0  0
    0.5292   -0.8867   -0.0761 C   0  0  0  0  0
   -5.1708   -4.8176   -1.1481 C   0  0  0  0  0
   -1.8315   -3.3107   -3.3551 C   0  0  0  0  0
   -1.1798    1.3993    0.3078 N   0  0  0  0  0
    3.5488   -0.8433   -1.7420 O   0  0  0  0  0
    1.9856   -1.7840   -3.0722 O   0  0  0  0  0
   -3.6026    1.7550    1.1410 O   0  0  0  0  0
   -3.1214    2.0374   -1.3060 O   0  0  0  0  0
   -3.8366   -4.4214   -0.8364 O   0  0  0  0  0
   -3.1207   -2.8196   -2.9929 O   0  0  0  0  0
   -2.8644    1.3664   -0.0462 S   0  0  0  0  0
  1  2  1  0  0  0
  3  9  1  0  0  0
  4 10  1  0  0  0
  5 12  1  0  0  0
  6 11  1  0  0  0
  7  8  1  0  0  0
  7 13  1  0  0  0
  9 17  1  0  0  0
 10 22  1  0  0  0
 11 23  1  0  0  0
 13 18  1  0  0  0
 14  8  1  0  0  0
 15 22  1  0  0  0
 16 23  1  0  0  0
 24 12  1  0  0  0
 24 17  1  0  0  0
  1  3  2  0  0  0
  2  7  2  0  0  0
  4  5  2  0  0  0
  6 12  2  0  0  0
  8  9  2  0  0  0
 10 11  2  0  0  0
 13 19  2  0  0  0
 24 20  2  0  0  0
 24 21  2  0  0  0
M  CHG  1  18  -1
M  END
> <rmsd>
0.386979073

$$$$
ZINC65844515


 24 25  0  0  0  0  0  0  0  0999 V2000
    1.0392    2.6451   -2.3436 C   0  0  0  0  0
    1.9488    1.5932   -2.4516 C   0  0  0  0  0
    0.0319    2.5999   -1.3798 C   0  0  0  0  0
   -3.4970   -2.5687    0.5332 C   0  0  0  0  0
   -3.3542   -1.1948    0.7276 C   0  0  0  0  0
   -2.6296   -0.9459   -1.5637 C   0  0  0  0  0
    1.8510    0.4960   -1.5959 C   0  0  0  0  0
    0.8436    0.4507   -0.6322 C   0  0  0  0  0
   -0.0661    1.5026   -0.5241 C   0  0  0  0  0
   -3.2060   -3.1312   -0.7096 C   0  0  0  0  0
   -2.7724   -2.3198   -1.7581 C   0  0  0  0  0
   -2.9205   -0.3835   -0.3208 C   0  0  0  0  0
    2.8235   -0.6040   -1.7317 C   0  0  0  0  0
    0.7391   -0.7271    0.2859 C   0  0  0  0  0
   -4.6226   -4.9369   -1.3330 C   0  0  0  0  0
   -1.1418   -3.2885   -3.1929 C   0  0  0  0  0
   -1.1068    1.4768    0.4562 N   0  0  0  0  0
    3.9137   -0.5515   -1.0506 O   0  0  0  0  0
    2.5473   -1.5772   -2.5267 O   0  0  0  0  0
   -3.6187    1.7220    1.0229 O   0  0  0  0  0
   -2.8932    2.0075   -1.3628 O   0  0  0  0  0
   -3.3493   -4.4743   -0.8868 O   0  0  0  0  0
   -2.4839   -2.8573   -2.9760 O   0  0  0  0  0
   -2.7407    1.3599   -0.0741 S   0  0  0  0  0
  1  2  1  0  0  0
  3  9  1  0  0  0
  4 10  1  0  0  0
  5 12  1  0  0  0
  6 11  1  0  0  0
  7  8  1  0  0  0
  7 13  1  0  0  0
  9 17  1  0  0  0
 10 22  1  0  0  0
 11 23  1  0  0  0
 13 18  1  0  0  0
 14  8  1  0  0  0
 15 22  1  0  0  0
 16 23  1  0  0  0
 24 12  1  0  0  0
 24 17  1  0  0  0
  1  3  2  0  0  0
  2  7  2  0  0  0
  4  5  2  0  0  0
  6 12  2  0  0  0
  8  9  2  0  0  0
 10 11  2  0  0  0
 13 19  2  0  0  0
 24 20  2  0  0  0
 24 21  2  0  0  0
M  CHG  1  18  -1
M  END
> <rmsd>
0.559643924

$$$$
ZINC65844513


 24 25  0  0  0  0  0  0  0  0999 V2000
    0.7182    2.5121   -2.6861 C   0  0  0  0  0
    1.5584    1.4199   -2.9024 C   0  0  0  0  0
   -0.1841    2.4981   -1.6225 C   0  0  0  0  0
   -3.6195   -3.0868   -0.6471 C   0  0  0  0  0
   -3.2588   -2.2952   -1.7375 C   0  0  0  0  0
   -3.5147   -1.1502    0.7936 C   0  0  0  0  0
    1.4961    0.3136   -2.0550 C   0  0  0  0  0
    0.5938    0.2996   -0.9915 C   0  0  0  0  0
   -0.2464    1.3919   -0.7751 C   0  0  0  0  0
   -3.7474   -2.5143    0.6185 C   0  0  0  0  0
   -3.0260   -0.9311   -1.5623 C   0  0  0  0  0
   -3.1540   -0.3586   -0.2968 C   0  0  0  0  0
    2.3935   -0.8291   -2.3061 C   0  0  0  0  0
    0.5274   -0.8879   -0.0824 C   0  0  0  0  0
   -4.3202   -4.6742    1.4322 C   0  0  0  0  0
   -2.5688   -0.8502   -3.8947 C   0  0  0  0  0
   -1.1792    1.3986    0.3087 N   0  0  0  0  0
    3.5501   -0.8411   -1.7428 O   0  0  0  0  0
    1.9880   -1.7737   -3.0799 O   0  0  0  0  0
   -3.6030    1.7538    1.1393 O   0  0  0  0  0
   -3.1171    2.0465   -1.3057 O   0  0  0  0  0
   -4.0984   -3.2871    1.6823 O   0  0  0  0  0
   -2.6749   -0.1775   -2.6416 O   0  0  0  0  0
   -2.8632    1.3695   -0.0484 S   0  0  0  0  0
  1  2  1  0  0  0
  3  9  1  0  0  0
  4 10  1  0  0  0
  5 11  1  0  0  0
  6 12  1  0  0  0
  7  8  1  0  0  0
  7 13  1  0  0  0
  9 17  1  0  0  0
 10 22  1  0  0  0
 11 23  1  0  0  0
 13 18  1  0  0  0
 14  8  1  0  0  0
 15 22  1  0  0  0
 16 23  1  0  0  0
 24 12  1  0  0  0
 24 17  1  0  0  0
  1  3  2  0  0  0
  2  7  2  0  0  0
  4  5  2  0  0  0
  6 10  2  0  0  0
  8  9  2  0  0  0
 11 12  2  0  0  0
 13 19  2  0  0  0
 24 20  2  0  0  0
 24 21  2  0  0  0
M  CHG  1  18  -1
M  END
> <rmsd>
0.383782446

$$$$
ZINC65844513


 24 25  0  0  0  0  0  0  0  0999 V2000
    1.0462    2.6530   -2.3335 C   0  0  0  0  0
    1.9548    1.6006   -2.4443 C   0  0  0  0  0
    0.0370    2.6049   -1.3718 C   0  0  0  0  0
   -3.2180   -3.1297   -0.6914 C   0  0  0  0  0
   -2.7803   -2.3311   -1.7479 C   0  0  0  0  0
   -3.3584   -1.1781    0.7259 C   0  0  0  0  0
    1.8541    0.4998   -1.5935 C   0  0  0  0  0
    0.8450    0.4516   -0.6318 C   0  0  0  0  0
   -0.0637    1.5042   -0.5209 C   0  0  0  0  0
   -3.5071   -2.5532    0.5455 C   0  0  0  0  0
   -2.6316   -0.9560   -1.5675 C   0  0  0  0  0
   -2.9207   -0.3794   -0.3307 C   0  0  0  0  0
    2.8256   -0.6007   -1.7322 C   0  0  0  0  0
    0.7374   -0.7298    0.2812 C   0  0  0  0  0
   -4.0620   -4.7311    1.3231 C   0  0  0  0  0
   -1.9320   -0.8731   -3.8389 C   0  0  0  0  0
   -1.1063    1.4755    0.4574 N   0  0  0  0  0
    3.9147   -0.5523   -1.0489 O   0  0  0  0  0
    2.5497   -1.5702   -2.5317 O   0  0  0  0  0
   -3.6189    1.7212    1.0206 O   0  0  0  0  0
   -2.8888    2.0159   -1.3626 O   0  0  0  0  0
   -3.9333   -3.3329    1.5764 O   0  0  0  0  0
   -2.2027   -0.1957   -2.6135 O   0  0  0  0  0
   -2.7393    1.3627   -0.0763 S   0  0  0  0  0
  1  2  1  0  0  0
  3  9  1  0  0  0
  4 10  1  0  0  0
  5 11  1  0  0  0
  6 12  1  0  0  0
  7  8  1  0  0  0
  7 13  1  0  0  0
  9 17  1  0  0  0
 10 22  1  0  0  0
 11 23  1  0  0  0
 13 18  1  0  0  0
 14  8  1  0  0  0
 15 22  1  0  0  0
 16 23  1  0  0  0
 24 12  1  0  0  0
 24 17  1  0  0  0
  1  3  2  0  0  0
  2  7  2  0  0  0
  4  5  2  0  0  0
  6 10  2  0  0  0
  8  9  2  0  0  0
 11 12  2  0  0  0
 13 19  2  0  0  0
 24 20  2  0  0  0
 24 21  2  0  0  0
M  CHG  1  18  -1
M  END
> <rmsd>
0.555234909

$$$$
ZINC65844515


 24 25  0  0  0  0  0  0  0  0999 V2000
    0.7105    2.5020   -2.6950 C   0  0  0  0  0
    1.5516    1.4099   -2.9080 C   0  0  0  0  0
   -0.1899    2.4916   -1.6297 C   0  0  0  0  0
   -3.2499   -2.2845   -1.7472 C   0  0  0  0  0
   -3.0231   -0.9213   -1.5577 C   0  0  0  0  0
   -3.5119   -1.1672    0.7956 C   0  0  0  0  0
    1.4921    0.3072   -2.0557 C   0  0  0  0  0
    0.5917    0.2968   -0.9905 C   0  0  0  0  0
   -0.2494    1.3890   -0.7775 C   0  0  0  0  0
   -3.6078   -3.0890   -0.6653 C   0  0  0  0  0
   -3.7388   -2.5304    0.6060 C   0  0  0  0  0
   -3.1541   -0.3627   -0.2864 C   0  0  0  0  0
    2.3903   -0.8356   -2.3034 C   0  0  0  0  0
    0.5283   -0.8868   -0.0761 C   0  0  0  0  0
   -3.6719   -4.9101   -2.1935 C   0  0  0  0  0
   -4.2012   -2.6566    2.9353 C   0  0  0  0  0
   -1.1803    1.3994    0.3079 N   0  0  0  0  0
    3.5479   -0.8437   -1.7420 O   0  0  0  0  0
    1.9846   -1.7840   -3.0723 O   0  0  0  0  0
   -3.6031    1.7554    1.1412 O   0  0  0  0  0
   -3.1219    2.0380   -1.3058 O   0  0  0  0  0
   -3.8268   -4.4189   -0.8636 O   0  0  0  0  0
   -4.0889   -3.3054    1.6701 O   0  0  0  0  0
   -2.8650    1.3668   -0.0460 S   0  0  0  0  0
  1  2  1  0  0  0
  3  9  1  0  0  0
  4 10  1  0  0  0
  5 12  1  0  0  0
  6 11  1  0  0  0
  7  8  1  0  0  0
  7 13  1  0  0  0
  9 17  1  0  0  0
 10 22  1  0  0  0
 11 23  1  0  0  0
 13 18  1  0  0  0
 14  8  1  0  0  0
 15 22  1  0  0  0
 16 23  1  0  0  0
 24 12  1  0  0  0
 24 17  1  0  0  0
  1  3  2  0  0  0
  2  7  2  0  0  0
  4  5  2  0  0  0
  6 12  2  0  0  0
  8  9  2  0  0  0
 10 11  2  0  0  0
 13 19  2  0  0  0
 24 20  2  0  0  0
 24 21  2  0  0  0
M  CHG  1  18  -1
M  END
> <rmsd>
0.387958825

$$$$
ZINC65844515


 24 25  0  0  0  0  0  0  0  0999 V2000
    1.0389    2.6452   -2.3432 C   0  0  0  0  0
    1.9483    1.5932   -2.4513 C   0  0  0  0  0
    0.0315    2.6000   -1.3795 C   0  0  0  0  0
   -2.7703   -2.3190   -1.7584 C   0  0  0  0  0
   -2.6294   -0.9449   -1.5637 C   0  0  0  0  0
   -3.3542   -1.1952    0.7274 C   0  0  0  0  0
    1.8503    0.4958   -1.5958 C   0  0  0  0  0
    0.8429    0.4505   -0.6321 C   0  0  0  0  0
   -0.0666    1.5026   -0.5239 C   0  0  0  0  0
   -3.2033   -3.1311   -0.7101 C   0  0  0  0  0
   -3.4952   -2.5692    0.5327 C   0  0  0  0  0
   -2.9214   -0.3831   -0.3209 C   0  0  0  0  0
    2.8226   -0.6043   -1.7317 C   0  0  0  0  0
    0.7382   -0.7274    0.2858 C   0  0  0  0  0
   -3.0181   -4.9654   -2.2124 C   0  0  0  0  0
   -4.1969   -2.6988    2.8013 C   0  0  0  0  0
   -1.1074    1.4769    0.4563 N   0  0  0  0  0
    3.9128   -0.5521   -1.0506 O   0  0  0  0  0
    2.5463   -1.5774   -2.5269 O   0  0  0  0  0
   -3.6193    1.7223    1.0231 O   0  0  0  0  0
   -2.8937    2.0081   -1.3626 O   0  0  0  0  0
   -3.3370   -4.4715   -0.9130 O   0  0  0  0  0
   -3.9199   -3.3516    1.5637 O   0  0  0  0  0
   -2.7413    1.3602   -0.0740 S   0  0  0  0  0
  1  2  1  0  0  0
  3  9  1  0  0  0
  4 10  1  0  0  0
  5 12  1  0  0  0
  6 11  1  0  0  0
  7  8  1  0  0  0
  7 13  1  0  0  0
  9 17  1  0  0  0
 10 22  1  0  0  0
 11 23  1  0  0  0
 13 18  1  0  0  0
 14  8  1  0  0  0
 15 22  1  0  0  0
 16 23  1  0  0  0
 24 12  1  0  0  0
 24 17  1  0  0  0
  1  3  2  0  0  0
  2  7  2  0  0  0
  4  5  2  0  0  0
  6 12  2  0  0  0
  8  9  2  0  0  0
 10 11  2  0  0  0
 13 19  2  0  0  0
 24 20  2  0  0  0
 24 21  2  0  0  0
M  CHG  1  18  -1
M  END
> <rmsd>
0.560596704

$$$$
ZINC65844515


 24 25  0  0  0  0  0  0  0  0999 V2000
    1.0392    2.6452   -2.3435 C   0  0  0  0  0
    1.9488    1.5933   -2.4515 C   0  0  0  0  0
    0.0318    2.6000   -1.3797 C   0  0  0  0  0
   -3.4970   -2.5686    0.5333 C   0  0  0  0  0
   -3.3542   -1.1947    0.7277 C   0  0  0  0  0
   -2.6296   -0.9458   -1.5636 C   0  0  0  0  0
    1.8510    0.4960   -1.5958 C   0  0  0  0  0
    0.8436    0.4507   -0.6321 C   0  0  0  0  0
   -0.0661    1.5027   -0.5240 C   0  0  0  0  0
   -3.2061   -3.1311   -0.7096 C   0  0  0  0  0
   -2.7724   -2.3197   -1.7580 C   0  0  0  0  0
   -2.9205   -0.3834   -0.3207 C   0  0  0  0  0
    2.8235   -0.6039   -1.7317 C   0  0  0  0  0
    0.7391   -0.7270    0.2860 C   0  0  0  0  0
   -2.2126   -5.2895   -0.6090 C   0  0  0  0  0
   -3.5516   -2.9377   -3.9182 C   0  0  0  0  0
   -1.1068    1.4769    0.4562 N   0  0  0  0  0
    3.9137   -0.5514   -1.0506 O   0  0  0  0  0
    2.5473   -1.5771   -2.5266 O   0  0  0  0  0
   -3.6187    1.7220    1.0230 O   0  0  0  0  0
   -2.8932    2.0076   -1.3627 O   0  0  0  0  0
   -3.3493   -4.4742   -0.8867 O   0  0  0  0  0
   -2.4840   -2.8572   -2.9760 O   0  0  0  0  0
   -2.7407    1.3600   -0.0740 S   0  0  0  0  0
  1  2  1  0  0  0
  3  9  1  0  0  0
  4 10  1  0  0  0
  5 12  1  0  0  0
  6 11  1  0  0  0
  7  8  1  0  0  0
  7 13  1  0  0  0
  9 17  1  0  0  0
 10 22  1  0  0  0
 11 23  1  0  0  0
 13 18  1  0  0  0
 14  8  1  0  0  0
 15 22  1  0  0  0
 16 23  1  0  0  0
 24 12  1  0  0  0
 24 17  1  0  0  0
  1  3  2  0  0  0
  2  7  2  0  0  0
  4  5  2  0  0  0
  6 12  2  0  0  0
  8  9  2  0  0  0
 10 11  2  0  0  0
 13 19  2  0  0  0
 24 20  2  0  0  0
 24 21  2  0  0  0
M  CHG  1  18  -1
M  END
> <rmsd>
0.559643924

$$$$
ZINC65844515


 24 25  0  0  0  0  0  0  0  0999 V2000
    0.7109    2.5020   -2.6952 C   0  0  0  0  0
    1.5522    1.4100   -2.9081 C   0  0  0  0  0
   -0.1895    2.4916   -1.6299 C   0  0  0  0  0
   -3.7406   -2.5297    0.6066 C   0  0  0  0  0
   -3.5119   -1.1668    0.7958 C   0  0  0  0  0
   -3.0233   -0.9221   -1.5577 C   0  0  0  0  0
    1.4929    0.3073   -2.0557 C   0  0  0  0  0
    0.5924    0.2969   -0.9905 C   0  0  0  0  0
   -0.2488    1.3890   -0.7776 C   0  0  0  0  0
   -3.6107   -3.0889   -0.6647 C   0  0  0  0  0
   -3.2520   -2.2851   -1.7468 C   0  0  0  0  0
   -3.1533   -0.3630   -0.2863 C   0  0  0  0  0
    2.3912   -0.8353   -2.3033 C   0  0  0  0  0
    0.5292   -0.8866   -0.0760 C   0  0  0  0  0
   -2.7174   -5.2928   -0.6880 C   0  0  0  0  0
   -4.2850   -2.8372   -3.8165 C   0  0  0  0  0
   -1.1798    1.3994    0.3078 N   0  0  0  0  0
    3.5489   -0.8432   -1.7419 O   0  0  0  0  0
    1.9856   -1.7839   -3.0721 O   0  0  0  0  0
   -3.6026    1.7551    1.1411 O   0  0  0  0  0
   -3.1214    2.0375   -1.3060 O   0  0  0  0  0
   -3.8365   -4.4213   -0.8363 O   0  0  0  0  0
   -3.1207   -2.8196   -2.9928 O   0  0  0  0  0
   -2.8644    1.3665   -0.0461 S   0  0  0  0  0
  1  2  1  0  0  0
  3  9  1  0  0  0
  4 10  1  0  0  0
  5 12  1  0  0  0
  6 11  1  0  0  0
  7  8  1  0  0  0
  7 13  1  0  0  0
  9 17  1  0  0  0
 10 22  1  0  0  0
 11 23  1  0  0  0
 13 18  1  0  0  0
 14  8  1  0  0  0
 15 22  1  0  0  0
 16 23  1  0  0  0
 24 12  1  0  0  0
 24 17  1  0  0  0
  1  3  2  0  0  0
  2  7  2  0  0  0
  4  5  2  0  0  0
  6 12  2  0  0  0
  8  9  2  0  0  0
 10 11  2  0  0  0
 13 19  2  0  0  0
 24 20  2  0  0  0
 24 21  2  0  0  0
M  CHG  1  18  -1
M  END
> <rmsd>
0.386979073

$$$$
ZINC65844513


 24 25  0  0  0  0  0  0  0  0999 V2000
    0.7026    2.4914   -2.7043 C   0  0  0  0  0
    1.5453    1.3998   -2.9135 C   0  0  0  0  0
   -0.1959    2.4846   -1.6374 C   0  0  0  0  0
   -3.6114   -3.0903   -0.6808 C   0  0  0  0  0
   -3.3287   -2.6139    0.5994 C   0  0  0  0  0
   -3.4353   -0.8449   -1.5552 C   0  0  0  0  0
    1.4893    0.3011   -2.0558 C   0  0  0  0  0
    0.5908    0.2942   -0.9890 C   0  0  0  0  0
   -0.2519    1.3859   -0.7797 C   0  0  0  0  0
   -3.6646   -2.2057   -1.7581 C   0  0  0  0  0
   -3.0993   -1.2531    0.8023 C   0  0  0  0  0
   -3.1526   -0.3686   -0.2750 C   0  0  0  0  0
    2.3891   -0.8413   -2.2996 C   0  0  0  0  0
    0.5311   -0.8851   -0.0688 C   0  0  0  0  0
   -4.1667   -4.0731   -3.1425 C   0  0  0  0  0
   -2.7916   -1.7882    3.0989 C   0  0  0  0  0
   -1.1809    1.3999    0.3073 N   0  0  0  0  0
    3.5477   -0.8446   -1.7402 O   0  0  0  0  0
    1.9838   -1.7941   -3.0632 O   0  0  0  0  0
   -3.6029    1.7555    1.1432 O   0  0  0  0  0
   -3.1265    2.0272   -1.3061 O   0  0  0  0  0
   -3.9415   -2.6707   -3.0069 O   0  0  0  0  0
   -2.8250   -0.8105    2.0612 O   0  0  0  0  0
   -2.8661    1.3626   -0.0435 S   0  0  0  0  0
  1  2  1  0  0  0
  3  9  1  0  0  0
  4 10  1  0  0  0
  5 11  1  0  0  0
  6 12  1  0  0  0
  7  8  1  0  0  0
  7 13  1  0  0  0
  9 17  1  0  0  0
 10 22  1  0  0  0
 11 23  1  0  0  0
 13 18  1  0  0  0
 14  8  1  0  0  0
 15 22  1  0  0  0
 16 23  1  0  0  0
 24 12  1  0  0  0
 24 17  1  0  0  0
  1  3  2  0  0  0
  2  7  2  0  0  0
  4  5  2  0  0  0
  6 10  2  0  0  0
  8  9  2  0  0  0
 11 12  2  0  0  0
 13 19  2  0  0  0
 24 20  2  0  0  0
 24 21  2  0  0  0
M  CHG  1  18  -1
M  END
> <rmsd>
0.389098436

$$$$
ZINC65844513


 24 25  0  0  0  0  0  0  0  0999 V2000
    1.0309    2.6369   -2.3538 C   0  0  0  0  0
    1.9419    1.5859   -2.4587 C   0  0  0  0  0
    0.0254    2.5945   -1.3880 C   0  0  0  0  0
   -3.2036   -3.1323   -0.7271 C   0  0  0  0  0
   -3.0815   -2.6330    0.5696 C   0  0  0  0  0
   -3.0424   -0.8878   -1.6065 C   0  0  0  0  0
    1.8474    0.4924   -1.5979 C   0  0  0  0  0
    0.8419    0.4500   -0.6321 C   0  0  0  0  0
   -0.0692    1.5011   -0.5271 C   0  0  0  0  0
   -3.1839   -2.2596   -1.8152 C   0  0  0  0  0
   -2.9399   -1.2611    0.7783 C   0  0  0  0  0
   -2.9204   -0.3885   -0.3098 C   0  0  0  0  0
    2.8213   -0.6067   -1.7305 C   0  0  0  0  0
    0.7409   -0.7237    0.2916 C   0  0  0  0  0
   -3.4467   -4.1597   -3.2210 C   0  0  0  0  0
   -2.8531   -1.7631    3.1012 C   0  0  0  0  0
   -1.1081    1.4781    0.4552 N   0  0  0  0  0
    3.9127   -0.5494   -1.0517 O   0  0  0  0  0
    2.5451   -1.5839   -2.5205 O   0  0  0  0  0
   -3.6193    1.7220    1.0256 O   0  0  0  0  0
   -2.8987    1.9978   -1.3628 O   0  0  0  0  0
   -3.3041   -2.7471   -3.0802 O   0  0  0  0  0
   -2.8223   -0.7961    2.0534 O   0  0  0  0  0
   -2.7427    1.3563   -0.0714 S   0  0  0  0  0
  1  2  1  0  0  0
  3  9  1  0  0  0
  4 10  1  0  0  0
  5 11  1  0  0  0
  6 12  1  0  0  0
  7  8  1  0  0  0
  7 13  1  0  0  0
  9 17  1  0  0  0
 10 22  1  0  0  0
 11 23  1  0  0  0
 13 18  1  0  0  0
 14  8  1  0  0  0
 15 22  1  0  0  0
 16 23  1  0  0  0
 24 12  1  0  0  0
 24 17  1  0  0  0
  1  3  2  0  0  0
  2  7  2  0  0  0
  4  5  2  0  0  0
  6 10  2  0  0  0
  8  9  2  0  0  0
 11 12  2  0  0  0
 13 19  2  0  0  0
 24 20  2  0  0  0
 24 21  2  0  0  0
M  CHG  1  18  -1
M  END
> <rmsd>
0.562148035

$$$$
ZINC24432921


 24 25  0  0  0  0  0  0  0  0999 V2000
    1.9261    1.5787   -2.4948 C   0  0  0  0  0
   -3.4557   -2.5769    0.5078 C   0  0  0  0  0
   -2.7463   -2.3029   -1.7854 C   0  0  0  0  0
    1.0193    2.6343   -2.3997 C   0  0  0  0  0
   -3.3261   -1.2032    0.7121 C   0  0  0  0  0
   -2.6167   -0.9291   -1.5811 C   0  0  0  0  0
    0.8286    0.4696   -0.6502 C   0  0  0  0  0
    1.8307    0.4963   -1.6200 C   0  0  0  0  0
   -3.1658   -3.1267   -0.7410 C   0  0  0  0  0
   -0.0782    1.5252   -0.5549 C   0  0  0  0  0
    0.0171    2.6076   -1.4297 C   0  0  0  0  0
   -2.9067   -0.3793   -0.3323 C   0  0  0  0  0
    2.7875   -0.6172   -1.7207 C   0  0  0  0  0
   -4.7652   -5.0725   -0.7019 C   0  0  0  0  0
   -2.3701   -5.3994    0.0002 C   0  0  0  0  0
   -2.9482   -5.0964   -2.3988 C   0  0  0  0  0
   -3.3063   -4.6414   -0.9659 C   0  0  0  0  0
   -1.1101    1.4960    0.4464 N   0  0  0  0  0
    2.6781   -1.6047   -0.9010 O   0  0  0  0  0
    3.7033   -0.5680   -2.6251 O   0  0  0  0  0
   -3.6128    1.7087    1.0343 O   0  0  0  0  0
   -2.9133    2.0197   -1.3560 O   0  0  0  0  0
   -0.8497    3.6270   -1.3471 F   0  0  0  0  0
   -2.7441    1.3403   -0.0773 S   0  0  0  0  0
  1  8  1  0  0  0
  2  9  1  0  0  0
  3  6  1  0  0  0
  4 11  1  0  0  0
  5 12  1  0  0  0
  7 10  1  0  0  0
  8 13  1  0  0  0
 10 18  1  0  0  0
 11 23  1  0  0  0
 13 19  1  0  0  0
 14 17  1  0  0  0
 15 17  1  0  0  0
 16 17  1  0  0  0
 17  9  1  0  0  0
 24 12  1  0  0  0
 24 18  1  0  0  0
  1  4  2  0  0  0
  2  5  2  0  0  0
  3  9  2  0  0  0
  6 12  2  0  0  0
  7  8  2  0  0  0
 10 11  2  0  0  0
 13 20  2  0  0  0
 24 21  2  0  0  0
 24 22  2  0  0  0
M  CHG  1  19  -1
M  END
> <rmsd>
0.585933864

$$$$
ZINC91054422


 24 25  0  0  0  0  0  0  0  0999 V2000
    0.7232    2.4633   -2.7256 C   0  0  0  0  0
    1.5611    1.3649   -2.9177 C   0  0  0  0  0
   -3.7595   -2.1887   -1.7448 C   0  0  0  0  0
   -3.5277   -0.8292   -1.5360 C   0  0  0  0  0
   -3.2136   -2.6365    0.5658 C   0  0  0  0  0
   -0.1794    2.4744   -1.6621 C   0  0  0  0  0
   -2.9817   -1.2770    0.7745 C   0  0  0  0  0
    0.5939    0.2886   -0.9831 C   0  0  0  0  0
   -0.2441    1.3870   -0.7909 C   0  0  0  0  0
    1.4964    0.2775   -2.0464 C   0  0  0  0  0
   -3.6025   -3.0924   -0.6938 C   0  0  0  0  0
   -3.1387   -0.3733   -0.2765 C   0  0  0  0  0
   -1.0644    3.6646   -1.4814 C   0  0  0  0  0
   -2.5663   -0.8215    2.1352 C   0  0  0  0  0
    0.5220   -0.8770   -0.0450 C   0  0  0  0  0
   -4.2227   -4.8160   -2.2105 C   0  0  0  0  0
   -1.1716    1.4016    0.3008 N   0  0  0  0  0
    2.3628   -0.8297   -2.2635 N   0  0  0  0  0
    3.4905   -0.8324   -1.7163 O   0  0  0  0  0
    1.9723   -1.7696   -2.9953 O   0  0  0  0  0
   -3.5904    1.7505    1.1415 O   0  0  0  0  0
   -3.1217    2.0217   -1.3091 O   0  0  0  0  0
   -3.8283   -4.4189   -0.8980 O   0  0  0  0  0
   -2.8561    1.3587   -0.0470 S   0  0  0  0  0
  1  6  1  0  0  0
  2 10  1  0  0  0
  3 11  1  0  0  0
  4 12  1  0  0  0
  5  7  1  0  0  0
  8  9  1  0  0  0
  9 17  1  0  0  0
 10 18  1  0  0  0
 11 23  1  0  0  0
 13  6  1  0  0  0
 14  7  1  0  0  0
 15  8  1  0  0  0
 16 23  1  0  0  0
 18 19  1  0  0  0
 24 12  1  0  0  0
 24 17  1  0  0  0
  1  2  2  0  0  0
  3  4  2  0  0  0
  5 11  2  0  0  0
  6  9  2  0  0  0
  7 12  2  0  0  0
  8 10  2  0  0  0
 18 20  2  0  0  0
 24 21  2  0  0  0
 24 22  2  0  0  0
M  CHG  2  18   1  19  -1
M  END
> <rmsd>
0.400208056

$$$$
ZINC16099621


 24 25  0  0  0  0  0  0  0  0999 V2000
   -2.8714   -2.3802   -1.5996 C   0  0  0  0  0
   -3.7335   -2.5138    0.6533 C   0  0  0  0  0
    2.0308    1.2222   -2.1646 C   0  0  0  0  0
    1.1798    2.3272   -2.1827 C   0  0  0  0  0
   -2.6864   -1.0062   -1.4475 C   0  0  0  0  0
   -3.5485   -1.1396    0.8055 C   0  0  0  0  0
    0.7533    0.2680   -0.3495 C   0  0  0  0  0
   -3.3951   -3.1341   -0.5493 C   0  0  0  0  0
   -0.0976    1.3731   -0.3674 C   0  0  0  0  0
    1.8175    0.1926   -1.2481 C   0  0  0  0  0
    0.1156    2.4027   -1.2841 C   0  0  0  0  0
   -3.0249   -0.3857   -0.2449 C   0  0  0  0  0
   -5.0751   -5.0127   -0.5923 C   0  0  0  0  0
   -2.7437   -5.4263    0.2728 C   0  0  0  0  0
   -0.3462    4.5983   -0.4953 C   0  0  0  0  0
   -3.5950   -4.6028   -0.7123 C   0  0  0  0  0
   -1.1896    1.4376    0.5662 N   0  0  0  0  0
    2.6835   -0.9326   -1.2302 N   0  0  0  0  0
    3.6345   -0.9810   -2.0473 O   0  0  0  0  0
    2.4743   -1.8477   -0.3974 O   0  0  0  0  0
   -3.7103    1.7931    0.9833 O   0  0  0  0  0
   -2.8500    1.9616   -1.3684 O   0  0  0  0  0
   -0.7052    3.4902   -1.3179 O   0  0  0  0  0
   -2.7938    1.3342   -0.0537 S   0  0  0  0  0
  1  8  1  0  0  0
  2  6  1  0  0  0
  3 10  1  0  0  0
  4 11  1  0  0  0
  5 12  1  0  0  0
  7  9  1  0  0  0
  9 17  1  0  0  0
 10 18  1  0  0  0
 11 23  1  0  0  0
 13 16  1  0  0  0
 14 16  1  0  0  0
 15 23  1  0  0  0
 16  8  1  0  0  0
 18 19  1  0  0  0
 24 12  1  0  0  0
 24 17  1  0  0  0
  1  5  2  0  0  0
  2  8  2  0  0  0
  3  4  2  0  0  0
  6 12  2  0  0  0
  7 10  2  0  0  0
  9 11  2  0  0  0
 18 20  2  0  0  0
 24 21  2  0  0  0
 24 22  2  0  0  0
M  CHG  2  18   1  19  -1
M  END
> <rmsd>
0.427627236

$$$$
ZINC91011095


 24 25  0  0  0  0  0  0  0  0999 V2000
    0.7318    2.4829   -2.6910 C   0  0  0  0  0
   -0.1721    2.4771   -1.6287 C   0  0  0  0  0
    1.5715    1.3885   -2.8984 C   0  0  0  0  0
   -3.7399   -2.5311    0.6083 C   0  0  0  0  0
   -3.2409   -2.2929   -1.7436 C   0  0  0  0  0
   -3.5105   -1.1679    0.7950 C   0  0  0  0  0
   -3.0115   -0.9297   -1.5569 C   0  0  0  0  0
    0.6032    0.2825   -0.9811 C   0  0  0  0  0
   -0.2364    1.3769   -0.7737 C   0  0  0  0  0
    1.5071    0.2883   -2.0434 C   0  0  0  0  0
   -3.6051   -3.0936   -0.6610 C   0  0  0  0  0
   -3.1463   -0.3673   -0.2875 C   0  0  0  0  0
    0.5292   -0.8959   -0.0593 C   0  0  0  0  0
   -3.8818   -6.1672    0.8103 C   0  0  0  0  0
   -2.2152   -6.1892   -1.0800 C   0  0  0  0  0
   -3.0066   -5.3277   -0.1077 C   0  0  0  0  0
   -1.1711    1.3923    0.3090 N   0  0  0  0  0
    2.3740   -0.8154   -2.2762 N   0  0  0  0  0
    3.5011   -0.8261   -1.7276 O   0  0  0  0  0
    1.9848   -1.7439   -3.0229 O   0  0  0  0  0
   -3.5954    1.7553    1.1334 O   0  0  0  0  0
   -3.1058    2.0307   -1.3129 O   0  0  0  0  0
   -3.8293   -4.4237   -0.8435 O   0  0  0  0  0
   -2.8543    1.3622   -0.0506 S   0  0  0  0  0
  1  2  1  0  0  0
  3 10  1  0  0  0
  4 11  1  0  0  0
  5  7  1  0  0  0
  6 12  1  0  0  0
  8  9  1  0  0  0
  9 17  1  0  0  0
 10 18  1  0  0  0
 11 23  1  0  0  0
 13  8  1  0  0  0
 14 16  1  0  0  0
 15 16  1  0  0  0
 16 23  1  0  0  0
 18 19  1  0  0  0
 24 12  1  0  0  0
 24 17  1  0  0  0
  1  3  2  0  0  0
  2  9  2  0  0  0
  4  6  2  0  0  0
  5 11  2  0  0  0
  7 12  2  0  0  0
  8 10  2  0  0  0
 18 20  2  0  0  0
 24 21  2  0  0  0
 24 22  2  0  0  0
M  CHG  2  18   1  19  -1
M  END
> <rmsd>
0.39222008

$$$$
ZINC91011095


 24 25  0  0  0  0  0  0  0  0999 V2000
    0.7324    2.4835   -2.6913 C   0  0  0  0  0
   -0.1714    2.4777   -1.6290 C   0  0  0  0  0
    1.5721    1.3891   -2.8986 C   0  0  0  0  0
   -3.7390   -2.5304    0.6084 C   0  0  0  0  0
   -3.2401   -2.2923   -1.7435 C   0  0  0  0  0
   -3.5097   -1.1672    0.7950 C   0  0  0  0  0
   -3.0107   -0.9291   -1.5569 C   0  0  0  0  0
    0.6040    0.2831   -0.9813 C   0  0  0  0  0
   -0.2356    1.3775   -0.7739 C   0  0  0  0  0
    1.5078    0.2889   -2.0436 C   0  0  0  0  0
   -3.6043   -3.0929   -0.6609 C   0  0  0  0  0
   -3.1455   -0.3667   -0.2876 C   0  0  0  0  0
    0.5300   -0.8952   -0.0595 C   0  0  0  0  0
   -5.7727   -5.4943   -1.7654 C   0  0  0  0  0
   -5.0089   -5.9467    0.5932 C   0  0  0  0  0
   -5.1279   -4.9131   -0.5164 C   0  0  0  0  0
   -1.1703    1.3930    0.3088 N   0  0  0  0  0
    2.3747   -0.8147   -2.2764 N   0  0  0  0  0
    3.5018   -0.8255   -1.7278 O   0  0  0  0  0
    1.9855   -1.7433   -3.0230 O   0  0  0  0  0
   -3.5946    1.7560    1.1332 O   0  0  0  0  0
   -3.1051    2.0313   -1.3130 O   0  0  0  0  0
   -3.8285   -4.4230   -0.8433 O   0  0  0  0  0
   -2.8535    1.3629   -0.0507 S   0  0  0  0  0
  1  2  1  0  0  0
  3 10  1  0  0  0
  4 11  1  0  0  0
  5  7  1  0  0  0
  6 12  1  0  0  0
  8  9  1  0  0  0
  9 17  1  0  0  0
 10 18  1  0  0  0
 11 23  1  0  0  0
 13  8  1  0  0  0
 14 16  1  0  0  0
 15 16  1  0  0  0
 16 23  1  0  0  0
 18 19  1  0  0  0
 24 12  1  0  0  0
 24 17  1  0  0  0
  1  3  2  0  0  0
  2  9  2  0  0  0
  4  6  2  0  0  0
  5 11  2  0  0  0
  7 12  2  0  0  0
  8 10  2  0  0  0
 18 20  2  0  0  0
 24 21  2  0  0  0
 24 22  2  0  0  0
M  CHG  2  18   1  19  -1
M  END
> <rmsd>
0.392061859

$$$$
ZINC12541594


 20 21  0  0  0  0  0  0  0  0999 V2000
    0.8758    2.5084   -2.5612 C   0  0  0  0  0
    1.8495    1.5108   -2.6059 C   0  0  0  0  0
   -0.1057    2.4813   -1.5704 C   0  0  0  0  0
    0.8605    0.4586   -0.6690 C   0  0  0  0  0
   -3.3814   -1.3049    0.6942 C   0  0  0  0  0
    1.8419    0.4859   -1.6598 C   0  0  0  0  0
   -0.1134    1.4563   -0.6243 C   0  0  0  0  0
   -2.9737   -0.4111   -0.3378 C   0  0  0  0  0
   -3.4662   -2.6056    0.2486 C   0  0  0  0  0
   -2.7621   -1.0628   -1.5330 C   0  0  0  0  0
    2.8697   -0.5667   -1.7077 C   0  0  0  0  0
   -1.1182    1.4282    0.3894 N   0  0  0  0  0
    2.8409   -1.5017   -0.8226 O   0  0  0  0  0
    3.7641   -0.5178   -2.6330 O   0  0  0  0  0
   -3.6088    1.6883    1.0461 O   0  0  0  0  0
   -2.9638    1.9881   -1.3609 O   0  0  0  0  0
   -3.0551   -2.7453   -1.4078 S   0  0  0  0  0
   -2.7719    1.3288   -0.0834 S   0  0  0  0  0
   -3.9145   -3.9962    1.1446 Cl  0  0  0  0  0
   -2.2683   -0.4048   -3.0401 Cl  0  0  0  0  0
  1  2  1  0  0  0
  3  7  1  0  0  0
  4  6  1  0  0  0
  5  8  1  0  0  0
  6 11  1  0  0  0
  7 12  1  0  0  0
  9 17  1  0  0  0
  9 19  1  0  0  0
 10 17  1  0  0  0
 10 20  1  0  0  0
 11 13  1  0  0  0
 18  8  1  0  0  0
 18 12  1  0  0  0
  1  3  2  0  0  0
  2  6  2  0  0  0
  4  7  2  0  0  0
  5  9  2  0  0  0
  8 10  2  0  0  0
 11 14  2  0  0  0
 18 15  2  0  0  0
 18 16  2  0  0  0
M  CHG  1  13  -1
M  END
> <rmsd>
0.503335655

$$$$
ZINC04980371


 24 25  0  0  0  0  0  0  0  0999 V2000
    0.8787    2.5120   -2.5629 C   0  0  0  0  0
    1.8472    1.5093   -2.6073 C   0  0  0  0  0
   -0.1000    2.4929   -1.5690 C   0  0  0  0  0
   -3.5500   -2.5631    0.5459 C   0  0  0  0  0
   -3.3829   -1.1921    0.7409 C   0  0  0  0  0
    0.8583    0.4680   -0.6644 C   0  0  0  0  0
   -2.7429   -0.9407   -1.5751 C   0  0  0  0  0
    1.8370    0.4872   -1.6581 C   0  0  0  0  0
   -0.1102    1.4708   -0.6199 C   0  0  0  0  0
   -2.9101   -2.3117   -1.7702 C   0  0  0  0  0
   -3.3135   -3.1229   -0.7097 C   0  0  0  0  0
   -2.9793   -0.3809   -0.3196 C   0  0  0  0  0
    2.8593   -0.5709   -1.7059 C   0  0  0  0  0
   -3.8989   -5.2106    0.2673 C   0  0  0  0  0
   -1.1123    1.4509    0.3967 N   0  0  0  0  0
   -2.6643   -2.8655   -3.0566 N   0  0  0  0  0
    2.8281   -1.5030   -0.8178 O   0  0  0  0  0
   -1.5094   -3.2683   -3.3325 O   0  0  0  0  0
    3.7512   -0.5294   -2.6339 O   0  0  0  0  0
   -3.6098   -2.9351   -3.8772 O   0  0  0  0  0
   -3.5995    1.7260    1.0598 O   0  0  0  0  0
   -2.9600    2.0152   -1.3499 O   0  0  0  0  0
   -3.4846   -4.4653   -0.8753 O   0  0  0  0  0
   -2.7677    1.3587   -0.0711 S   0  0  0  0  0
  1  2  1  0  0  0
  3  9  1  0  0  0
  4 11  1  0  0  0
  5 12  1  0  0  0
  6  8  1  0  0  0
  7 10  1  0  0  0
  8 13  1  0  0  0
  9 15  1  0  0  0
 10 16  1  0  0  0
 11 23  1  0  0  0
 13 17  1  0  0  0
 14 23  1  0  0  0
 16 18  1  0  0  0
 24 12  1  0  0  0
 24 15  1  0  0  0
  1  3  2  0  0  0
  2  8  2  0  0  0
  4  5  2  0  0  0
  6  9  2  0  0  0
  7 12  2  0  0  0
 10 11  2  0  0  0
 13 19  2  0  0  0
 16 20  2  0  0  0
 24 21  2  0  0  0
 24 22  2  0  0  0
M  CHG  3  16   1  17  -1  18  -1
M  END
> <rmsd>
0.519263029

$$$$
ZINC21533857


 24 25  0  0  0  0  0  0  0  0999 V2000
   -3.2710   -2.5853    0.4476 C   0  0  0  0  0
   -2.4318   -2.2512   -1.7933 C   0  0  0  0  0
   -3.2257   -1.2090    0.6698 C   0  0  0  0  0
   -2.3865   -0.8749   -1.5711 C   0  0  0  0  0
    1.0017    0.7908   -0.3144 C   0  0  0  0  0
   -0.0088    2.7340   -1.2759 C   0  0  0  0  0
    2.0568    0.9144   -1.2134 C   0  0  0  0  0
   -0.0444    1.7081   -0.3423 C   0  0  0  0  0
   -2.8740   -3.1064   -0.7839 C   0  0  0  0  0
   -2.7835   -0.3539   -0.3396 C   0  0  0  0  0
    2.0392    1.9604   -2.1249 C   0  0  0  0  0
    3.1608   -0.0600   -1.1784 C   0  0  0  0  0
    4.4338    2.3778   -2.6265 C   0  0  0  0  0
    2.7848    2.1178   -4.4871 C   0  0  0  0  0
   -3.3812   -5.2658    0.0741 C   0  0  0  0  0
    1.0193    2.8297   -2.1300 N   0  0  0  0  0
   -1.1347    1.5980    0.5697 N   0  0  0  0  0
    3.0650    2.1529   -3.0611 N   0  0  0  0  0
    3.0721   -1.1216   -1.9012 O   0  0  0  0  0
    4.1768    0.1830   -0.4261 O   0  0  0  0  0
   -3.6896    1.6807    0.9891 O   0  0  0  0  0
   -2.8422    2.0525   -1.3440 O   0  0  0  0  0
   -2.9184   -4.4493   -1.0007 O   0  0  0  0  0
   -2.7269    1.3926   -0.0577 S   0  0  0  0  0
  1  9  1  0  0  0
  2  4  1  0  0  0
  3 10  1  0  0  0
  5  8  1  0  0  0
  6 16  1  0  0  0
  7 11  1  0  0  0
  7 12  1  0  0  0
  8 17  1  0  0  0
  9 23  1  0  0  0
 11 18  1  0  0  0
 12 19  1  0  0  0
 13 18  1  0  0  0
 14 18  1  0  0  0
 15 23  1  0  0  0
 24 10  1  0  0  0
 24 17  1  0  0  0
  1  3  2  0  0  0
  2  9  2  0  0  0
  4 10  2  0  0  0
  5  7  2  0  0  0
  6  8  2  0  0  0
 11 16  2  0  0  0
 12 20  2  0  0  0
 24 21  2  0  0  0
 24 22  2  0  0  0
M  CHG  2  16   1  19  -1
M  END
> <rmsd>
0.693472385

$$$$
ZINC21533857


 24 25  0  0  0  0  0  0  0  0999 V2000
   -3.5626   -2.5614    0.5536 C   0  0  0  0  0
   -2.9153   -2.3179   -1.7613 C   0  0  0  0  0
   -3.3914   -1.1905    0.7457 C   0  0  0  0  0
   -2.7439   -0.9470   -1.5692 C   0  0  0  0  0
    0.8651    0.4630   -0.6638 C   0  0  0  0  0
   -0.0796    2.4686   -1.5619 C   0  0  0  0  0
    1.8372    0.4943   -1.6592 C   0  0  0  0  0
   -0.1055    1.4587   -0.6107 C   0  0  0  0  0
   -3.3246   -3.1251   -0.6999 C   0  0  0  0  0
   -2.9821   -0.3833   -0.3158 C   0  0  0  0  0
    1.8140    1.5286   -2.5839 C   0  0  0  0  0
    2.8618   -0.5628   -1.7095 C   0  0  0  0  0
    4.1755    1.7526   -3.3137 C   0  0  0  0  0
    2.3435    1.6019   -5.0076 C   0  0  0  0  0
   -3.9125   -5.2290    0.2404 C   0  0  0  0  0
    0.8678    2.4746   -2.5097 N   0  0  0  0  0
   -1.1103    1.4438    0.4007 N   0  0  0  0  0
    2.7588    1.6304   -3.6148 N   0  0  0  0  0
    2.6243   -1.6220   -2.4017 O   0  0  0  0  0
    3.9597   -0.3917   -1.0596 O   0  0  0  0  0
   -3.6004    1.7299    1.0546 O   0  0  0  0  0
   -2.9507    2.0094   -1.3536 O   0  0  0  0  0
   -3.4919   -4.4627   -0.8874 O   0  0  0  0  0
   -2.7655    1.3563   -0.0719 S   0  0  0  0  0
  1  9  1  0  0  0
  2  4  1  0  0  0
  3 10  1  0  0  0
  5  8  1  0  0  0
  6 16  1  0  0  0
  7 11  1  0  0  0
  7 12  1  0  0  0
  8 17  1  0  0  0
  9 23  1  0  0  0
 11 18  1  0  0  0
 12 19  1  0  0  0
 13 18  1  0  0  0
 14 18  1  0  0  0
 15 23  1  0  0  0
 24 10  1  0  0  0
 24 17  1  0  0  0
  1  3  2  0  0  0
  2  9  2  0  0  0
  4 10  2  0  0  0
  5  7  2  0  0  0
  6  8  2  0  0  0
 11 16  2  0  0  0
 12 20  2  0  0  0
 24 21  2  0  0  0
 24 22  2  0  0  0
M  CHG  2  16   1  19  -1
M  END
> <rmsd>
0.513840914

$$$$
ZINC02187199


 24 25  0  0  0  0  0  0  0  0999 V2000
   -3.7322   -2.5146    0.6534 C   0  0  0  0  0
   -2.8704   -2.3801   -1.5997 C   0  0  0  0  0
    2.0303    1.2220   -2.1652 C   0  0  0  0  0
    1.1792    2.3269   -2.1835 C   0  0  0  0  0
   -3.5478   -1.1404    0.8060 C   0  0  0  0  0
   -2.6861   -1.0058   -1.4471 C   0  0  0  0  0
    0.7533    0.2683   -0.3495 C   0  0  0  0  0
   -3.3935   -3.1344   -0.5494 C   0  0  0  0  0
   -0.0979    1.3733   -0.3679 C   0  0  0  0  0
    1.8173    0.1926   -1.2482 C   0  0  0  0  0
    0.1151    2.4026   -1.2849 C   0  0  0  0  0
   -3.0248   -0.3860   -0.2443 C   0  0  0  0  0
   -2.3634    5.8577   -1.2787 C   0  0  0  0  0
   -1.1248    5.6731   -0.4206 C   0  0  0  0  0
   -0.1052    4.7622   -1.0870 C   0  0  0  0  0
   -3.5799   -4.5238   -0.7042 N   0  0  0  0  0
   -1.1897    1.4380    0.5659 N   0  0  0  0  0
    2.6836   -0.9324   -1.2300 N   0  0  0  0  0
    3.6345   -0.9809   -2.0472 O   0  0  0  0  0
    2.4747   -1.8472   -0.3969 O   0  0  0  0  0
   -3.7105    1.7932    0.9833 O   0  0  0  0  0
   -2.8505    1.9610   -1.3686 O   0  0  0  0  0
   -0.7059    3.4899   -1.3189 O   0  0  0  0  0
   -2.7940    1.3340   -0.0538 S   0  0  0  0  0
  1  8  1  0  0  0
  2  6  1  0  0  0
  3 10  1  0  0  0
  4 11  1  0  0  0
  5 12  1  0  0  0
  7  9  1  0  0  0
  8 16  1  0  0  0
  9 17  1  0  0  0
 10 18  1  0  0  0
 11 23  1  0  0  0
 13 14  1  0  0  0
 14 15  1  0  0  0
 15 23  1  0  0  0
 18 19  1  0  0  0
 24 12  1  0  0  0
 24 17  1  0  0  0
  1  5  2  0  0  0
  2  8  2  0  0  0
  3  4  2  0  0  0
  6 12  2  0  0  0
  7 10  2  0  0  0
  9 11  2  0  0  0
 18 20  2  0  0  0
 24 21  2  0  0  0
 24 22  2  0  0  0
M  CHG  2  18   1  19  -1
M  END
> <rmsd>
0.428171426

$$$$
ZINC80753043


 24 25  0  0  0  0  0  0  0  0999 V2000
   -3.9272   -2.2714    0.4500 C   0  0  0  0  0
   -5.0220   -2.2854   -0.4143 C   0  0  0  0  0
   -3.4192   -1.0574    0.9124 C   0  0  0  0  0
   -5.6087   -1.0855   -0.8161 C   0  0  0  0  0
   -4.0059    0.1425    0.5106 C   0  0  0  0  0
   -5.1007    0.1285   -0.3538 C   0  0  0  0  0
    0.4195   -1.5911   -3.0959 C   0  0  0  0  0
    2.3925   -0.9646   -2.4449 C   0  0  0  0  0
   -0.2497    0.8298   -1.0441 C   0  0  0  0  0
   -2.9855   -3.0564   -4.1746 C   0  0  0  0  0
   -3.8534    3.5264    0.0643 C   0  0  0  0  0
   -1.0371   -1.8189   -3.0940 C   0  0  0  0  0
    0.4749   -0.4839   -0.8435 C   0  0  0  0  0
   -1.4883   -2.7929   -4.2022 C   0  0  0  0  0
   -1.5538    2.5195    0.2331 C   0  0  0  0  0
   -3.0337    2.2461   -0.0239 C   0  0  0  0  0
    1.2700   -1.9192   -4.0421 N   0  0  0  0  0
    2.5252   -1.5205   -3.6280 N   0  0  0  0  0
    1.0831   -0.9876   -2.0711 N   0  0  0  0  0
   -0.8037    1.2872    0.1421 N   0  0  0  0  0
   -0.3281    1.4009   -2.1284 O   0  0  0  0  0
   -3.5065    1.3328    0.9645 O   0  0  0  0  0
   -5.6688    1.2781   -0.7436 F   0  0  0  0  0
    3.6471   -0.3114   -1.5084 S   0  0  0  0  0
  1  2  1  0  0  0
  3  5  1  0  0  0
  4  6  1  0  0  0
  5 22  1  0  0  0
  6 23  1  0  0  0
  7 19  1  0  0  0
  8 18  1  0  0  0
  8 19  1  0  0  0
  9 20  1  0  0  0
 10 14  1  0  0  0
 11 16  1  0  0  0
 12  7  1  0  0  0
 12 14  1  0  0  0
 13  9  1  0  0  0
 13 19  1  0  0  0
 15 16  1  0  0  0
 15 20  1  0  0  0
 16 22  1  0  0  0
 17 18  1  0  0  0
  1  3  2  0  0  0
  2  4  2  0  0  0
  5  6  2  0  0  0
  7 17  2  0  0  0
  8 24  2  0  0  0
  9 21  2  0  0  0
M  CHG  1  24  -1
M  END
> <rmsd>
0.747728467

$$$$
ZINC91025374


 24 26  0  0  0  0  0  0  0  0999 V2000
   -3.1606   -0.6572   -1.6309 C   0  0  0  0  0
   -2.8993   -2.0117   -1.8380 C   0  0  0  0  0
   -2.8267   -0.9559    0.7432 C   0  0  0  0  0
    0.5080   -0.0890    0.6822 C   0  0  0  0  0
    0.9119    0.0721   -2.0116 C   0  0  0  0  0
   -3.1242   -0.1294   -0.3402 C   0  0  0  0  0
    1.3983   -0.9658    0.0723 C   0  0  0  0  0
    1.6098   -0.8903   -1.2999 C   0  0  0  0  0
   -2.5654   -2.3104    0.5361 C   0  0  0  0  0
   -2.6018   -2.8382   -0.7546 C   0  0  0  0  0
   -0.1404    0.8376   -0.1183 C   0  0  0  0  0
   -2.6973    3.4602    0.6124 C   0  0  0  0  0
   -3.5602    2.8222    1.6838 C   0  0  0  0  0
   -3.4065    1.3367   -0.1158 C   0  0  0  0  0
   -2.1841    2.2590   -0.1517 C   0  0  0  0  0
    2.1098   -1.9740    0.9146 C   0  0  0  0  0
    0.0392    0.9410   -1.4542 N   0  0  0  0  0
   -1.0218    1.7024    0.5017 N   0  0  0  0  0
    2.5073   -1.7614   -1.9712 N   0  0  0  0  0
    3.7090   -1.4205   -2.0936 O   0  0  0  0  0
    2.0753   -2.8491   -2.4240 O   0  0  0  0  0
   -4.0710    1.5974    1.1376 O   0  0  0  0  0
   -2.2820   -3.0924    1.5875 F   0  0  0  0  0
   -2.2799   -4.5090   -1.0167 Cl  0  0  0  0  0
  1  6  1  0  0  0
  2 10  1  0  0  0
  3  9  1  0  0  0
  4  7  1  0  0  0
  5  8  1  0  0  0
  8 19  1  0  0  0
  9 23  1  0  0  0
 10 24  1  0  0  0
 11 17  1  0  0  0
 11 18  1  0  0  0
 12 13  1  0  0  0
 12 15  1  0  0  0
 13 22  1  0  0  0
 14  6  1  0  0  0
 14 15  1  0  0  0
 14 22  1  0  0  0
 15 18  1  0  0  0
 16  7  1  0  0  0
 19 20  1  0  0  0
  1  2  2  0  0  0
  3  6  2  0  0  0
  4 11  2  0  0  0
  5 17  2  0  0  0
  7  8  2  0  0  0
  9 10  2  0  0  0
 19 21  2  0  0  0
M  CHG  2  19   1  20  -1
M  END
> <rmsd>
0.664867222

$$$$
ZINC91025374


 24 26  0  0  0  0  0  0  0  0999 V2000
   -2.8265   -0.9561    0.7434 C   0  0  0  0  0
   -2.5660   -2.3106    0.5359 C   0  0  0  0  0
   -3.1606   -0.6566   -1.6306 C   0  0  0  0  0
    0.5084   -0.0886    0.6825 C   0  0  0  0  0
    0.9123    0.0724   -2.0113 C   0  0  0  0  0
   -3.1238   -0.1291   -0.3398 C   0  0  0  0  0
    1.3987   -0.9654    0.0726 C   0  0  0  0  0
    1.6102   -0.8900   -1.2996 C   0  0  0  0  0
   -2.9000   -2.0112   -1.8382 C   0  0  0  0  0
   -2.6027   -2.8382   -0.7548 C   0  0  0  0  0
   -0.1400    0.8380   -0.1180 C   0  0  0  0  0
   -2.6970    3.4604    0.6126 C   0  0  0  0  0
   -3.5599    2.8225    1.6841 C   0  0  0  0  0
   -3.4062    1.3369   -0.1155 C   0  0  0  0  0
   -2.1838    2.2593   -0.1515 C   0  0  0  0  0
    2.1103   -1.9735    0.9150 C   0  0  0  0  0
    0.0395    0.9413   -1.4540 N   0  0  0  0  0
   -1.0215    1.7027    0.5019 N   0  0  0  0  0
    2.5077   -1.7611   -1.9708 N   0  0  0  0  0
    3.7093   -1.4201   -2.0933 O   0  0  0  0  0
    2.0757   -2.8488   -2.4236 O   0  0  0  0  0
   -4.0707    1.5977    1.1379 O   0  0  0  0  0
   -2.9381   -2.5033   -3.0846 F   0  0  0  0  0
   -2.2807   -4.5107   -1.0046 Cl  0  0  0  0  0
  1  6  1  0  0  0
  2 10  1  0  0  0
  3  9  1  0  0  0
  4  7  1  0  0  0
  5  8  1  0  0  0
  8 19  1  0  0  0
  9 23  1  0  0  0
 10 24  1  0  0  0
 11 17  1  0  0  0
 11 18  1  0  0  0
 12 13  1  0  0  0
 12 15  1  0  0  0
 13 22  1  0  0  0
 14  6  1  0  0  0
 14 15  1  0  0  0
 14 22  1  0  0  0
 15 18  1  0  0  0
 16  7  1  0  0  0
 19 20  1  0  0  0
  1  2  2  0  0  0
  3  6  2  0  0  0
  4 11  2  0  0  0
  5 17  2  0  0  0
  7  8  2  0  0  0
  9 10  2  0  0  0
 19 21  2  0  0  0
M  CHG  2  19   1  20  -1
M  END
> <rmsd>
0.664672434

$$$$
ZINC01120463


 24 25  0  0  0  0  0  0  0  0999 V2000
    0.7316    2.4834   -2.6910 C   0  0  0  0  0
   -0.1723    2.4773   -1.6286 C   0  0  0  0  0
    1.5713    1.3892   -2.8985 C   0  0  0  0  0
   -3.7409   -2.5307    0.6093 C   0  0  0  0  0
   -3.5098   -1.1678    0.7959 C   0  0  0  0  0
   -3.0131   -0.9300   -1.5566 C   0  0  0  0  0
    0.6036    0.2828   -0.9812 C   0  0  0  0  0
   -0.2362    1.3771   -0.7737 C   0  0  0  0  0
    1.5074    0.2888   -2.0436 C   0  0  0  0  0
   -3.6079   -3.0933   -0.6601 C   0  0  0  0  0
   -3.2441   -2.2929   -1.7431 C   0  0  0  0  0
   -3.1459   -0.3675   -0.2870 C   0  0  0  0  0
    0.5304   -0.8960   -0.0599 C   0  0  0  0  0
   -5.1702   -4.8198   -1.1443 C   0  0  0  0  0
   -1.8207   -3.3255   -3.3442 C   0  0  0  0  0
   -1.1708    1.3924    0.3091 N   0  0  0  0  0
    2.3748   -0.8144   -2.2758 N   0  0  0  0  0
    3.5018   -0.8246   -1.7270 O   0  0  0  0  0
    1.9862   -1.7436   -3.0220 O   0  0  0  0  0
   -3.5951    1.7551    1.1338 O   0  0  0  0  0
   -3.1058    2.0304   -1.3124 O   0  0  0  0  0
   -3.8362   -4.4256   -0.8293 O   0  0  0  0  0
   -3.1099   -2.8308   -2.9873 O   0  0  0  0  0
   -2.8540    1.3621   -0.0502 S   0  0  0  0  0
  1  2  1  0  0  0
  3  9  1  0  0  0
  4 10  1  0  0  0
  5 12  1  0  0  0
  6 11  1  0  0  0
  7  8  1  0  0  0
  8 16  1  0  0  0
  9 17  1  0  0  0
 10 22  1  0  0  0
 11 23  1  0  0  0
 13  7  1  0  0  0
 14 22  1  0  0  0
 15 23  1  0  0  0
 17 18  1  0  0  0
 24 12  1  0  0  0
 24 16  1  0  0  0
  1  3  2  0  0  0
  2  8  2  0  0  0
  4  5  2  0  0  0
  6 12  2  0  0  0
  7  9  2  0  0  0
 10 11  2  0  0  0
 17 19  2  0  0  0
 24 20  2  0  0  0
 24 21  2  0  0  0
M  CHG  2  17   1  18  -1
M  END
> <rmsd>
0.391314298

$$$$
ZINC01120463


 24 25  0  0  0  0  0  0  0  0999 V2000
    0.7317    2.4840   -2.6914 C   0  0  0  0  0
   -0.1722    2.4779   -1.6290 C   0  0  0  0  0
    1.5712    1.3896   -2.8990 C   0  0  0  0  0
   -3.2416   -2.2917   -1.7440 C   0  0  0  0  0
   -3.0124   -0.9285   -1.5572 C   0  0  0  0  0
   -3.5093   -1.1675    0.7951 C   0  0  0  0  0
    0.6034    0.2832   -0.9818 C   0  0  0  0  0
   -0.2363    1.3776   -0.7742 C   0  0  0  0  0
    1.5072    0.2892   -2.0442 C   0  0  0  0  0
   -3.6047   -3.0927   -0.6614 C   0  0  0  0  0
   -3.7385   -2.5307    0.6082 C   0  0  0  0  0
   -3.1463   -0.3665   -0.2876 C   0  0  0  0  0
    0.5300   -0.8957   -0.0606 C   0  0  0  0  0
   -3.6677   -4.9175   -2.1852 C   0  0  0  0  0
   -4.2087   -2.6501    2.9363 C   0  0  0  0  0
   -1.1708    1.3930    0.3086 N   0  0  0  0  0
    2.3744   -0.8141   -2.2765 N   0  0  0  0  0
    3.5013   -0.8245   -1.7277 O   0  0  0  0  0
    1.9856   -1.7432   -3.0228 O   0  0  0  0  0
   -3.5951    1.7560    1.1335 O   0  0  0  0  0
   -3.1057    2.0315   -1.3128 O   0  0  0  0  0
   -3.8259   -4.4227   -0.8570 O   0  0  0  0  0
   -4.0938   -3.3023    1.6731 O   0  0  0  0  0
   -2.8541    1.3630   -0.0506 S   0  0  0  0  0
  1  2  1  0  0  0
  3  9  1  0  0  0
  4 10  1  0  0  0
  5 12  1  0  0  0
  6 11  1  0  0  0
  7  8  1  0  0  0
  8 16  1  0  0  0
  9 17  1  0  0  0
 10 22  1  0  0  0
 11 23  1  0  0  0
 13  7  1  0  0  0
 14 22  1  0  0  0
 15 23  1  0  0  0
 17 18  1  0  0  0
 24 12  1  0  0  0
 24 16  1  0  0  0
  1  3  2  0  0  0
  2  8  2  0  0  0
  4  5  2  0  0  0
  6 12  2  0  0  0
  7  9  2  0  0  0
 10 11  2  0  0  0
 17 19  2  0  0  0
 24 20  2  0  0  0
 24 21  2  0  0  0
M  CHG  2  17   1  18  -1
M  END
> <rmsd>
0.392175674

$$$$
ZINC01120463


 24 25  0  0  0  0  0  0  0  0999 V2000
    0.7320    2.4834   -2.6910 C   0  0  0  0  0
   -0.1718    2.4772   -1.6286 C   0  0  0  0  0
    1.5717    1.3891   -2.8985 C   0  0  0  0  0
   -3.7406   -2.5307    0.6093 C   0  0  0  0  0
   -3.5094   -1.1679    0.7959 C   0  0  0  0  0
   -3.0127   -0.9300   -1.5566 C   0  0  0  0  0
    0.6040    0.2827   -0.9812 C   0  0  0  0  0
   -0.2358    1.3770   -0.7736 C   0  0  0  0  0
    1.5078    0.2887   -2.0436 C   0  0  0  0  0
   -3.6076   -3.0933   -0.6602 C   0  0  0  0  0
   -3.2438   -2.2929   -1.7431 C   0  0  0  0  0
   -3.1456   -0.3675   -0.2870 C   0  0  0  0  0
    0.5308   -0.8962   -0.0599 C   0  0  0  0  0
   -2.7191   -5.2992   -0.6753 C   0  0  0  0  0
   -4.2713   -2.8480   -3.8148 C   0  0  0  0  0
   -1.1703    1.3923    0.3091 N   0  0  0  0  0
    2.3752   -0.8145   -2.2758 N   0  0  0  0  0
    3.5021   -0.8247   -1.7270 O   0  0  0  0  0
    1.9865   -1.7437   -3.0221 O   0  0  0  0  0
   -3.5947    1.7551    1.1339 O   0  0  0  0  0
   -3.1053    2.0304   -1.3123 O   0  0  0  0  0
   -3.8359   -4.4256   -0.8293 O   0  0  0  0  0
   -3.1096   -2.8308   -2.9874 O   0  0  0  0  0
   -2.8536    1.3620   -0.0501 S   0  0  0  0  0
  1  2  1  0  0  0
  3  9  1  0  0  0
  4 10  1  0  0  0
  5 12  1  0  0  0
  6 11  1  0  0  0
  7  8  1  0  0  0
  8 16  1  0  0  0
  9 17  1  0  0  0
 10 22  1  0  0  0
 11 23  1  0  0  0
 13  7  1  0  0  0
 14 22  1  0  0  0
 15 23  1  0  0  0
 17 18  1  0  0  0
 24 12  1  0  0  0
 24 16  1  0  0  0
  1  3  2  0  0  0
  2  8  2  0  0  0
  4  5  2  0  0  0
  6 12  2  0  0  0
  7  9  2  0  0  0
 10 11  2  0  0  0
 17 19  2  0  0  0
 24 20  2  0  0  0
 24 21  2  0  0  0
M  CHG  2  17   1  18  -1
M  END
> <rmsd>
0.391394824

$$$$
ZINC14253964


 24 25  0  0  0  0  0  0  0  0999 V2000
    0.7238    2.4734   -2.7008 C   0  0  0  0  0
   -0.1781    2.4708   -1.6368 C   0  0  0  0  0
    1.5650    1.3795   -2.9046 C   0  0  0  0  0
   -3.6082   -3.0938   -0.6768 C   0  0  0  0  0
   -3.3285   -2.6150    0.6030 C   0  0  0  0  0
   -3.4244   -0.8512   -1.5562 C   0  0  0  0  0
    0.6025    0.2806   -0.9803 C   0  0  0  0  0
   -0.2387    1.3746   -0.7765 C   0  0  0  0  0
    1.5043    0.2831   -2.0445 C   0  0  0  0  0
   -3.6561   -2.2120   -1.7564 C   0  0  0  0  0
   -3.0969   -1.2542    0.8033 C   0  0  0  0  0
   -3.1448   -0.3722   -0.2763 C   0  0  0  0  0
    0.5328   -0.8939   -0.0534 C   0  0  0  0  0
   -4.1579   -4.0816   -3.1379 C   0  0  0  0  0
   -2.7978   -1.7843    3.1022 C   0  0  0  0  0
   -1.1713    1.3935    0.3079 N   0  0  0  0  0
    2.3731   -0.8198   -2.2730 N   0  0  0  0  0
    3.5010   -0.8256   -1.7262 O   0  0  0  0  0
    1.9846   -1.7532   -3.0141 O   0  0  0  0  0
   -3.5948    1.7563    1.1353 O   0  0  0  0  0
   -3.1103    2.0209   -1.3131 O   0  0  0  0  0
   -3.9300   -2.6794   -3.0050 O   0  0  0  0  0
   -2.8255   -0.8091    2.0620 O   0  0  0  0  0
   -2.8552    1.3589   -0.0482 S   0  0  0  0  0
  1  2  1  0  0  0
  3  9  1  0  0  0
  4 10  1  0  0  0
  5 11  1  0  0  0
  6 12  1  0  0  0
  7  8  1  0  0  0
  8 16  1  0  0  0
  9 17  1  0  0  0
 10 22  1  0  0  0
 11 23  1  0  0  0
 13  7  1  0  0  0
 14 22  1  0  0  0
 15 23  1  0  0  0
 17 18  1  0  0  0
 24 12  1  0  0  0
 24 16  1  0  0  0
  1  3  2  0  0  0
  2  8  2  0  0  0
  4  5  2  0  0  0
  6 10  2  0  0  0
  7  9  2  0  0  0
 11 12  2  0  0  0
 17 19  2  0  0  0
 24 20  2  0  0  0
 24 21  2  0  0  0
M  CHG  2  17   1  18  -1
M  END
> <rmsd>
0.393525213

$$$$
ZINC14253964


 24 25  0  0  0  0  0  0  0  0999 V2000
    0.7393    2.4935   -2.6824 C   0  0  0  0  0
   -0.1663    2.4839   -1.6216 C   0  0  0  0  0
    1.5780    1.3991   -2.8933 C   0  0  0  0  0
   -3.6162   -3.0909   -0.6423 C   0  0  0  0  0
   -3.2504   -2.3030   -1.7335 C   0  0  0  0  0
   -3.5118   -1.1509    0.7938 C   0  0  0  0  0
    0.6056    0.2856   -0.9824 C   0  0  0  0  0
   -0.2332    1.3801   -0.7716 C   0  0  0  0  0
    1.5112    0.2951   -2.0433 C   0  0  0  0  0
   -3.7470   -2.5148    0.6214 C   0  0  0  0  0
   -3.0152   -0.9389   -1.5611 C   0  0  0  0  0
   -3.1460   -0.3628   -0.2975 C   0  0  0  0  0
    0.5293   -0.8971   -0.0664 C   0  0  0  0  0
   -4.3270   -4.6715    1.4389 C   0  0  0  0  0
   -2.5504   -0.8649   -3.8923 C   0  0  0  0  0
   -1.1695    1.3919    0.3097 N   0  0  0  0  0
    2.3776   -0.8082   -2.2788 N   0  0  0  0  0
    3.5036   -0.8223   -1.7281 O   0  0  0  0  0
    1.9890   -1.7337   -3.0297 O   0  0  0  0  0
   -3.5948    1.7542    1.1319 O   0  0  0  0  0
   -3.1009    2.0395   -1.3123 O   0  0  0  0  0
   -4.1029   -3.2842    1.6861 O   0  0  0  0  0
   -2.6591   -0.1888   -2.6413 O   0  0  0  0  0
   -2.8522    1.3653   -0.0526 S   0  0  0  0  0
  1  2  1  0  0  0
  3  9  1  0  0  0
  4 10  1  0  0  0
  5 11  1  0  0  0
  6 12  1  0  0  0
  7  8  1  0  0  0
  8 16  1  0  0  0
  9 17  1  0  0  0
 10 22  1  0  0  0
 11 23  1  0  0  0
 13  7  1  0  0  0
 14 22  1  0  0  0
 15 23  1  0  0  0
 17 18  1  0  0  0
 24 12  1  0  0  0
 24 16  1  0  0  0
  1  3  2  0  0  0
  2  8  2  0  0  0
  4  5  2  0  0  0
  6 10  2  0  0  0
  7  9  2  0  0  0
 11 12  2  0  0  0
 17 19  2  0  0  0
 24 20  2  0  0  0
 24 21  2  0  0  0
M  CHG  2  17   1  18  -1
M  END
> <rmsd>
0.387968719

$$$$
ZINC26544247


 24 25  0  0  0  0  0  0  0  0999 V2000
    1.0125    2.8341   -2.2199 C   0  0  0  0  0
   -0.0456    2.7201   -1.3181 C   0  0  0  0  0
    0.9994    0.7747   -0.3381 C   0  0  0  0  0
   -3.1713   -1.3904    0.5888 C   0  0  0  0  0
   -2.4069   -1.0557   -1.5025 C   0  0  0  0  0
    2.0639    1.9184   -2.1809 C   0  0  0  0  0
   -0.0521    1.6904   -0.3772 C   0  0  0  0  0
    2.0574    0.8886   -1.2400 C   0  0  0  0  0
   -2.7657   -0.4037   -0.3435 C   0  0  0  0  0
   -3.0477   -2.6154   -0.0290 C   0  0  0  0  0
   -3.3404   -3.9035    0.5211 C   0  0  0  0  0
    2.8015    1.5751   -4.5526 C   0  0  0  0  0
   -2.3152   -3.4206   -2.2887 C   0  0  0  0  0
    3.1827    2.0689   -3.1607 C   0  0  0  0  0
   -2.5820   -2.3997   -1.2996 N   0  0  0  0  0
   -3.8111   -3.9784    1.8406 N   0  0  0  0  0
   -1.1360    1.5735    0.5448 N   0  0  0  0  0
    3.1181   -0.0572   -1.1834 N   0  0  0  0  0
    3.0334   -1.1040   -1.8681 O   0  0  0  0  0
   -3.1752   -4.9650   -0.1294 O   0  0  0  0  0
    4.1064    0.1840   -0.4507 O   0  0  0  0  0
   -3.6869    1.6267    0.9814 O   0  0  0  0  0
   -2.8613    1.9966   -1.3597 O   0  0  0  0  0
   -2.7286    1.3448   -0.0710 S   0  0  0  0  0
  1  6  1  0  0  0
  2  7  1  0  0  0
  3  8  1  0  0  0
  4  9  1  0  0  0
  5 15  1  0  0  0
  7 17  1  0  0  0
  8 18  1  0  0  0
 10 11  1  0  0  0
 10 15  1  0  0  0
 11 16  1  0  0  0
 12 14  1  0  0  0
 13 15  1  0  0  0
 14  6  1  0  0  0
 18 19  1  0  0  0
 24  9  1  0  0  0
 24 17  1  0  0  0
  1  2  2  0  0  0
  3  7  2  0  0  0
  4 10  2  0  0  0
  5  9  2  0  0  0
  6  8  2  0  0  0
 11 20  2  0  0  0
 18 21  2  0  0  0
 24 22  2  0  0  0
 24 23  2  0  0  0
M  CHG  2  18   1  19  -1
M  END
> <rmsd>
0.700154424

$$$$
ZINC91054640


 23 24  0  0  0  0  0  0  0  0999 V2000
    0.7332    2.4778   -2.7117 C   0  0  0  0  0
    1.5687    1.3785   -2.9093 C   0  0  0  0  0
   -3.2379   -2.2858   -1.7550 C   0  0  0  0  0
   -3.7251   -2.5344    0.5983 C   0  0  0  0  0
   -3.0120   -0.9226   -1.5642 C   0  0  0  0  0
   -3.4990   -1.1713    0.7891 C   0  0  0  0  0
   -0.1721    2.4840   -1.6505 C   0  0  0  0  0
    0.5936    0.2914   -0.9846 C   0  0  0  0  0
   -0.2419    1.3908   -0.7870 C   0  0  0  0  0
    1.4989    0.2853   -2.0457 C   0  0  0  0  0
   -3.5944   -3.0917   -0.6737 C   0  0  0  0  0
   -3.1425   -0.3654   -0.2922 C   0  0  0  0  0
   -1.0544    3.6753   -1.4638 C   0  0  0  0  0
    0.5162   -0.8804   -0.0548 C   0  0  0  0  0
   -2.2632   -5.3224   -1.5482 C   0  0  0  0  0
   -1.1722    1.4002    0.3024 N   0  0  0  0  0
    2.3628   -0.8227   -2.2683 N   0  0  0  0  0
    3.4892   -0.8322   -1.7182 O   0  0  0  0  0
    1.9718   -1.7565   -3.0076 O   0  0  0  0  0
   -3.5922    1.7498    1.1394 O   0  0  0  0  0
   -3.1165    2.0367   -1.3081 O   0  0  0  0  0
   -3.8834   -4.8333   -0.9176 S   0  0  0  0  0
   -2.8559    1.3643   -0.0499 S   0  0  0  0  0
  1  7  1  0  0  0
  2 10  1  0  0  0
  3 11  1  0  0  0
  4  6  1  0  0  0
  5 12  1  0  0  0
  8  9  1  0  0  0
  9 16  1  0  0  0
 10 17  1  0  0  0
 11 22  1  0  0  0
 13  7  1  0  0  0
 14  8  1  0  0  0
 15 22  1  0  0  0
 17 18  1  0  0  0
 23 12  1  0  0  0
 23 16  1  0  0  0
  1  2  2  0  0  0
  3  5  2  0  0  0
  4 11  2  0  0  0
  6 12  2  0  0  0
  7  9  2  0  0  0
  8 10  2  0  0  0
 17 19  2  0  0  0
 23 20  2  0  0  0
 23 21  2  0  0  0
M  CHG  2  17   1  18  -1
M  END
> <rmsd>
0.399144918

$$$$
ZINC47318113


 23 24  0  0  0  0  0  0  0  0999 V2000
   -2.9060   -2.3062   -1.7802 C   0  0  0  0  0
   -3.5367   -2.5664    0.5375 C   0  0  0  0  0
   -0.1089    2.5052   -1.5760 C   0  0  0  0  0
   -2.7419   -0.9354   -1.5815 C   0  0  0  0  0
   -3.3725   -1.1955    0.7361 C   0  0  0  0  0
    0.8659    2.5304   -2.5733 C   0  0  0  0  0
    0.8591    0.4806   -0.6810 C   0  0  0  0  0
    1.8339    0.5058   -1.6783 C   0  0  0  0  0
   -3.3035   -3.1217   -0.7206 C   0  0  0  0  0
   -0.1123    1.4803   -0.6298 C   0  0  0  0  0
   -2.9752   -0.3800   -0.3235 C   0  0  0  0  0
    1.8373    1.5307   -2.6245 C   0  0  0  0  0
    2.8444   -0.5692   -1.7000 C   0  0  0  0  0
   -4.9312   -5.0462   -0.6883 C   0  0  0  0  0
   -2.5156   -5.4279   -0.0763 C   0  0  0  0  0
   -3.4811   -4.5870   -0.9330 C   0  0  0  0  0
   -1.1104    1.4549    0.3909 N   0  0  0  0  0
    2.5969   -1.6337   -2.3780 O   0  0  0  0  0
    3.9356   -0.4025   -1.0399 O   0  0  0  0  0
   -3.5957    1.7211    1.0644 O   0  0  0  0  0
   -2.9664    2.0190   -1.3468 O   0  0  0  0  0
   -2.7674    1.3594   -0.0707 S   0  0  0  0  0
    3.0263    1.5989   -3.8749 Cl  0  0  0  0  0
  1  9  1  0  0  0
  2  5  1  0  0  0
  3 10  1  0  0  0
  4 11  1  0  0  0
  6 12  1  0  0  0
  7  8  1  0  0  0
  8 13  1  0  0  0
 10 17  1  0  0  0
 12 23  1  0  0  0
 13 18  1  0  0  0
 14 16  1  0  0  0
 15 16  1  0  0  0
 16  9  1  0  0  0
 22 11  1  0  0  0
 22 17  1  0  0  0
  1  4  2  0  0  0
  2  9  2  0  0  0
  3  6  2  0  0  0
  5 11  2  0  0  0
  7 10  2  0  0  0
  8 12  2  0  0  0
 13 19  2  0  0  0
 22 20  2  0  0  0
 22 21  2  0  0  0
M  CHG  1  18  -1
M  END
> <rmsd>
0.528900027

$$$$
ZINC47318113


 23 24  0  0  0  0  0  0  0  0999 V2000
   -2.4194   -2.2372   -1.8136 C   0  0  0  0  0
   -3.2404   -2.5887    0.4313 C   0  0  0  0  0
   -0.0404    2.7711   -1.2921 C   0  0  0  0  0
   -2.3827   -0.8617   -1.5848 C   0  0  0  0  0
   -3.2038   -1.2132    0.6601 C   0  0  0  0  0
    1.0179    2.8902   -2.1928 C   0  0  0  0  0
    0.9964    0.8109   -0.3330 C   0  0  0  0  0
    2.0547    0.9300   -1.2338 C   0  0  0  0  0
   -2.8483   -3.1007   -0.8055 C   0  0  0  0  0
   -0.0512    1.7315   -0.3621 C   0  0  0  0  0
   -2.7750   -0.3497   -0.3480 C   0  0  0  0  0
    2.0654    1.9696   -2.1637 C   0  0  0  0  0
    3.1442   -0.0631   -1.1725 C   0  0  0  0  0
   -4.3155   -5.1454   -0.9486 C   0  0  0  0  0
   -1.9448   -5.3508   -0.1162 C   0  0  0  0  0
   -2.8897   -4.5711   -1.0504 C   0  0  0  0  0
   -1.1347    1.6100    0.5597 N   0  0  0  0  0
    3.0453   -1.1307   -1.8829 O   0  0  0  0  0
    4.1528    0.1749   -0.4108 O   0  0  0  0  0
   -3.6851    1.6709    0.9992 O   0  0  0  0  0
   -2.8597    2.0616   -1.3385 O   0  0  0  0  0
   -2.7290    1.3955   -0.0570 S   0  0  0  0  0
    3.3565    2.1529   -3.2957 Cl  0  0  0  0  0
  1  9  1  0  0  0
  2  5  1  0  0  0
  3 10  1  0  0  0
  4 11  1  0  0  0
  6 12  1  0  0  0
  7  8  1  0  0  0
  8 13  1  0  0  0
 10 17  1  0  0  0
 12 23  1  0  0  0
 13 18  1  0  0  0
 14 16  1  0  0  0
 15 16  1  0  0  0
 16  9  1  0  0  0
 22 11  1  0  0  0
 22 17  1  0  0  0
  1  4  2  0  0  0
  2  9  2  0  0  0
  3  6  2  0  0  0
  5 11  2  0  0  0
  7 10  2  0  0  0
  8 12  2  0  0  0
 13 19  2  0  0  0
 22 20  2  0  0  0
 22 21  2  0  0  0
M  CHG  1  18  -1
M  END
> <rmsd>
0.710076213

$$$$
ZINC23747688


 23 24  0  0  0  0  0  0  0  0999 V2000
   -2.3597   -2.7958   -0.0244 C   0  0  0  0  0
   -2.8994   -1.1266   -1.6857 C   0  0  0  0  0
   -3.6645   -2.7314    0.4642 C   0  0  0  0  0
   -4.2043   -1.0623   -1.1971 C   0  0  0  0  0
   -1.9771   -1.9934   -1.0994 C   0  0  0  0  0
   -4.5869   -1.8647   -0.1221 C   0  0  0  0  0
   -0.6276   -2.0593   -1.6056 C   0  0  0  0  0
    1.4853   -1.6522   -1.8869 C   0  0  0  0  0
   -0.3470    1.0116   -0.5870 C   0  0  0  0  0
   -3.1755    2.7240    0.6399 C   0  0  0  0  0
   -5.4157    3.8378    0.7906 C   0  0  0  0  0
   -3.4707    5.1244   -0.0069 C   0  0  0  0  0
    0.3083   -0.2674   -0.1114 C   0  0  0  0  0
   -1.7136    2.9046    0.2706 C   0  0  0  0  0
   -0.1939   -2.8605   -2.5524 N   0  0  0  0  0
    1.1503   -2.6014   -2.7314 N   0  0  0  0  0
    0.3964   -1.2809   -1.1580 N   0  0  0  0  0
   -1.0063    1.6689    0.4487 N   0  0  0  0  0
   -3.9882    3.8518    0.4805 N   0  0  0  0  0
   -0.2966    1.4064   -1.7488 O   0  0  0  0  0
   -3.5934    1.6381    1.0507 O   0  0  0  0  0
    3.0324   -0.9770   -1.7151 S   0  0  0  0  0
   -6.1975   -1.7865    0.4790 Cl  0  0  0  0  0
  1  5  1  0  0  0
  2  4  1  0  0  0
  3  6  1  0  0  0
  5  7  1  0  0  0
  6 23  1  0  0  0
  7 17  1  0  0  0
  8 16  1  0  0  0
  8 17  1  0  0  0
  9 18  1  0  0  0
 10 19  1  0  0  0
 11 19  1  0  0  0
 12 19  1  0  0  0
 13  9  1  0  0  0
 13 17  1  0  0  0
 14 10  1  0  0  0
 14 18  1  0  0  0
 15 16  1  0  0  0
  1  3  2  0  0  0
  2  5  2  0  0  0
  4  6  2  0  0  0
  7 15  2  0  0  0
  8 22  2  0  0  0
  9 20  2  0  0  0
 10 21  2  0  0  0
M  CHG  1  22  -1
M  END
> <rmsd>
0.548193336

$$$$
ZINC90779921


 26 29  0  0  0  0  0  0  0  0999 V2000
   -5.0002   -3.0318   -0.6398 C   0  0  0  0  0
   -4.4941   -2.1764   -1.6301 C   0  0  0  0  0
    4.7497    2.8167    1.0767 C   0  0  0  0  0
    5.5980    2.4426    0.0346 C   0  0  0  0  0
   -4.7387   -2.7898    0.7097 C   0  0  0  0  0
   -3.7200   -1.0657   -1.2854 C   0  0  0  0  0
    3.4227    2.3869    1.0844 C   0  0  0  0  0
    5.1192    1.6389   -1.0000 C   0  0  0  0  0
   -3.9600   -1.6935    1.0419 C   0  0  0  0  0
   -3.4549   -0.8337    0.0558 C   0  0  0  0  0
    2.9439    1.5832    0.0497 C   0  0  0  0  0
    3.7922    1.2091   -0.9925 C   0  0  0  0  0
   -3.5807   -1.2227    2.4109 C   0  0  0  0  0
   -2.4010   -0.2899    2.0872 C   0  0  0  0  0
   -0.4395    4.1307   -1.5384 C   0  0  0  0  0
    1.0125    3.9543   -1.8849 C   0  0  0  0  0
    0.2275    2.8000   -1.3256 C   0  0  0  0  0
   -2.6832    0.2930    0.6845 C   0  0  0  0  0
    1.5090    1.1389    0.0873 C   0  0  0  0  0
   -1.4098    0.6961   -0.0462 C   0  0  0  0  0
    0.5028    2.2973    0.0856 C   0  0  0  0  0
    3.3254    0.3918   -2.0588 N   0  0  0  0  0
   -0.7901    1.8346    0.6652 N   0  0  0  0  0
    3.4186   -0.8539   -1.9527 O   0  0  0  0  0
    2.8342    0.9415   -3.0728 O   0  0  0  0  0
   -3.5483    1.4189    0.7943 O   0  0  0  0  0
  1  2  1  0  0  0
  3  4  1  0  0  0
  5  9  1  0  0  0
  6 10  1  0  0  0
  7 11  1  0  0  0
  8 12  1  0  0  0
 12 22  1  0  0  0
 13  9  1  0  0  0
 13 14  1  0  0  0
 14 18  1  0  0  0
 15 16  1  0  0  0
 15 17  1  0  0  0
 16 17  1  0  0  0
 17 21  1  0  0  0
 18 10  1  0  0  0
 18 20  1  0  0  0
 18 26  1  0  0  0
 19 11  1  0  0  0
 19 21  1  0  0  0
 20 23  1  0  0  0
 21 23  1  0  0  0
 22 24  1  0  0  0
  1  5  2  0  0  0
  2  6  2  0  0  0
  3  7  2  0  0  0
  4  8  2  0  0  0
  9 10  2  0  0  0
 11 12  2  0  0  0
 22 25  2  0  0  0
M  CHG  3  22   1  23   1  24  -1
M  END
> <rmsd>
0.494731128

$$$$
ZINC84621801


 25 26  0  0  0  0  0  0  0  0999 V2000
   -2.9829   -2.5335   -0.3631 C   0  0  0  0  0
   -3.2567   -1.6092   -1.3711 C   0  0  0  0  0
    2.1737   -1.3599    1.0210 C   0  0  0  0  0
    1.3010   -0.2776    1.0779 C   0  0  0  0  0
   -3.0129   -2.1370    0.9739 C   0  0  0  0  0
   -3.5604   -0.2882   -1.0422 C   0  0  0  0  0
    2.8676   -1.5976   -0.1570 C   0  0  0  0  0
    1.8586    0.2559   -1.1864 C   0  0  0  0  0
    1.1384    0.5417   -0.0352 C   0  0  0  0  0
   -3.3165   -0.8158    1.3028 C   0  0  0  0  0
   -3.5903    0.1085    0.2948 C   0  0  0  0  0
    0.2115    1.7020    0.0054 C   0  0  0  0  0
   -4.9894    3.4275   -1.1562 C   0  0  0  0  0
   -3.8211    3.6817   -0.2117 C   0  0  0  0  0
   -1.8484    2.6321    1.0289 C   0  0  0  0  0
   -3.0191    2.4061    0.0694 C   0  0  0  0  0
   -3.3436   -0.4091    2.7390 C   0  0  0  0  0
    2.6923   -0.7928   -1.2140 N   0  0  0  0  0
   -0.8488    1.5980    0.8920 N   0  0  0  0  0
    3.3477   -1.0358   -2.2930 O   0  0  0  0  0
    0.4127    2.6570   -0.7401 O   0  0  0  0  0
   -3.8892    1.4085    0.6002 O   0  0  0  0  0
   -3.0539   -1.4279    3.6006 F   0  0  0  0  0
   -2.4524    0.5798    3.0425 F   0  0  0  0  0
   -4.5633    0.0639    3.1263 F   0  0  0  0  0
  1  2  1  0  0  0
  3  7  1  0  0  0
  4  9  1  0  0  0
  5 10  1  0  0  0
  6 11  1  0  0  0
  8 18  1  0  0  0
  9 12  1  0  0  0
 11 22  1  0  0  0
 12 19  1  0  0  0
 13 14  1  0  0  0
 14 16  1  0  0  0
 15 16  1  0  0  0
 15 19  1  0  0  0
 16 22  1  0  0  0
 17 10  1  0  0  0
 17 23  1  0  0  0
 17 24  1  0  0  0
 17 25  1  0  0  0
 18 20  1  0  0  0
  1  5  2  0  0  0
  2  6  2  0  0  0
  3  4  2  0  0  0
  7 18  2  0  0  0
  8  9  2  0  0  0
 10 11  2  0  0  0
 12 21  2  0  0  0
M  CHG  2  18   1  20  -1
M  END
> <rmsd>
0.519843519

$$$$
ZINC84621801


 25 26  0  0  0  0  0  0  0  0999 V2000
   -3.6162   -2.4632   -0.3984 C   0  0  0  0  0
   -3.9671   -1.4697   -1.3123 C   0  0  0  0  0
    1.0326   -2.2203   -0.6028 C   0  0  0  0  0
    0.2899   -1.0673   -0.3671 C   0  0  0  0  0
   -3.3646   -2.1294    0.9324 C   0  0  0  0  0
   -4.0664   -0.1423   -0.8954 C   0  0  0  0  0
    2.2742   -2.1027   -1.2111 C   0  0  0  0  0
    2.0452    0.2302   -1.3457 C   0  0  0  0  0
    0.7976    0.1733   -0.7410 C   0  0  0  0  0
   -3.4638   -0.8020    1.3492 C   0  0  0  0  0
   -3.8147    0.1916    0.4353 C   0  0  0  0  0
    0.0202    1.4158   -0.4981 C   0  0  0  0  0
   -4.0385    4.3837    1.4572 C   0  0  0  0  0
   -3.7552    3.7901    0.0829 C   0  0  0  0  0
   -1.7139    2.4942    0.9110 C   0  0  0  0  0
   -3.0546    2.4300    0.1756 C   0  0  0  0  0
   -3.1905   -0.4631    2.7773 C   0  0  0  0  0
    2.7392   -0.8955   -1.5609 N   0  0  0  0  0
   -0.8694    1.3745    0.5640 N   0  0  0  0  0
    3.8927   -0.8152   -2.1230 O   0  0  0  0  0
    0.1841    2.3808   -1.2400 O   0  0  0  0  0
   -3.9157    1.4987    0.8276 O   0  0  0  0  0
   -2.8602   -1.5452    3.5417 F   0  0  0  0  0
   -2.1605    0.4179    2.9411 F   0  0  0  0  0
   -4.2646    0.1085    3.3945 F   0  0  0  0  0
  1  2  1  0  0  0
  3  7  1  0  0  0
  4  9  1  0  0  0
  5 10  1  0  0  0
  6 11  1  0  0  0
  8 18  1  0  0  0
  9 12  1  0  0  0
 11 22  1  0  0  0
 12 19  1  0  0  0
 13 14  1  0  0  0
 14 16  1  0  0  0
 15 16  1  0  0  0
 15 19  1  0  0  0
 16 22  1  0  0  0
 17 10  1  0  0  0
 17 23  1  0  0  0
 17 24  1  0  0  0
 17 25  1  0  0  0
 18 20  1  0  0  0
  1  5  2  0  0  0
  2  6  2  0  0  0
  3  4  2  0  0  0
  7 18  2  0  0  0
  8  9  2  0  0  0
 10 11  2  0  0  0
 12 21  2  0  0  0
M  CHG  2  18   1  20  -1
M  END
> <rmsd>
0.375458211

$$$$
ZINC00888014


 25 27  0  0  0  0  0  0  0  0999 V2000
   -3.5245   -7.3474   -1.0006 C   0  0  0  0  0
   -2.3827   -6.8151   -0.4017 C   0  0  0  0  0
   -4.5367   -6.4990   -1.4495 C   0  0  0  0  0
    1.6659    2.5887   -1.4426 C   0  0  0  0  0
   -2.2532   -5.4344   -0.2515 C   0  0  0  0  0
   -4.4071   -5.1184   -1.2994 C   0  0  0  0  0
   -3.6019   -2.5300    0.6105 C   0  0  0  0  0
   -2.5295   -2.3970   -1.5503 C   0  0  0  0  0
    0.5218    2.6298   -0.6457 C   0  0  0  0  0
    2.2922    1.3695   -1.7014 C   0  0  0  0  0
   -3.4709   -1.1495    0.7607 C   0  0  0  0  0
   -2.3986   -1.0163   -1.4003 C   0  0  0  0  0
    0.6305    0.2325   -0.3662 C   0  0  0  0  0
   -3.2655   -4.5860   -0.7004 C   0  0  0  0  0
   -3.1311   -3.1538   -0.5449 C   0  0  0  0  0
    0.0041    1.4517   -0.1074 C   0  0  0  0  0
    1.7745    0.1915   -1.1632 C   0  0  0  0  0
   -2.8692   -0.3927   -0.2447 C   0  0  0  0  0
   -1.1753    1.4944    0.7145 N   0  0  0  0  0
    2.4119   -1.0493   -1.4278 N   0  0  0  0  0
    3.4393   -1.0638   -2.1481 O   0  0  0  0  0
    1.9308   -2.0978   -0.9340 O   0  0  0  0  0
   -3.7338    1.7789    0.8789 O   0  0  0  0  0
   -2.6530    1.9456   -1.3800 O   0  0  0  0  0
   -2.7075    1.3354   -0.0572 S   0  0  0  0  0
  1  2  1  0  0  0
  3  6  1  0  0  0
  4 10  1  0  0  0
  5 14  1  0  0  0
  7 15  1  0  0  0
  8 12  1  0  0  0
  9 16  1  0  0  0
 11 18  1  0  0  0
 13 17  1  0  0  0
 14 15  1  0  0  0
 16 19  1  0  0  0
 17 20  1  0  0  0
 20 21  1  0  0  0
 25 18  1  0  0  0
 25 19  1  0  0  0
  1  3  2  0  0  0
  2  5  2  0  0  0
  4  9  2  0  0  0
  6 14  2  0  0  0
  7 11  2  0  0  0
  8 15  2  0  0  0
 10 17  2  0  0  0
 12 18  2  0  0  0
 13 16  2  0  0  0
 20 22  2  0  0  0
 25 23  2  0  0  0
 25 24  2  0  0  0
M  CHG  2  20   1  21  -1
M  END
> <rmsd>
0.558980048

$$$$
ZINC05234729


 25 28  0  0  0  0  0  0  0  0999 V2000
   -3.3357   -5.2917    0.6811 C   0  0  0  0  0
    1.6555    2.5848   -1.4616 C   0  0  0  0  0
   -3.2541   -4.6054   -0.5464 C   0  0  0  0  0
   -3.0299   -2.3606   -1.6847 C   0  0  0  0  0
   -3.2901   -4.6027    1.9045 C   0  0  0  0  0
    0.5142    2.6294   -0.6610 C   0  0  0  0  0
    2.2835    1.3650   -1.7135 C   0  0  0  0  0
   -2.9038   -0.9683   -1.5111 C   0  0  0  0  0
    0.6288    0.2344   -0.3641 C   0  0  0  0  0
   -3.1243   -3.2041   -0.5622 C   0  0  0  0  0
   -3.0846   -2.5760    0.6844 C   0  0  0  0  0
   -3.1621   -3.2246    1.8884 C   0  0  0  0  0
   -2.9628   -1.2250    0.8744 C   0  0  0  0  0
    0.0008    1.4543   -0.1123 C   0  0  0  0  0
    1.7701    0.1898   -1.1647 C   0  0  0  0  0
   -2.8696   -0.3947   -0.2292 C   0  0  0  0  0
   -3.0903   -2.2586    3.0335 C   0  0  0  0  0
   -2.9518   -0.8786    2.3338 C   0  0  0  0  0
   -1.1757    1.5007    0.7134 N   0  0  0  0  0
    2.4091   -1.0516   -1.4224 N   0  0  0  0  0
    3.4342   -1.0693   -2.1461 O   0  0  0  0  0
    1.9319   -2.0973   -0.9191 O   0  0  0  0  0
   -3.7343    1.7821    0.8841 O   0  0  0  0  0
   -2.6606    1.9370   -1.3793 O   0  0  0  0  0
   -2.7103    1.3328   -0.0527 S   0  0  0  0  0
  1  3  1  0  0  0
  2  7  1  0  0  0
  4 10  1  0  0  0
  5 12  1  0  0  0
  6 14  1  0  0  0
  8 16  1  0  0  0
  9 15  1  0  0  0
 10 11  1  0  0  0
 11 13  1  0  0  0
 14 19  1  0  0  0
 15 20  1  0  0  0
 17 12  1  0  0  0
 17 18  1  0  0  0
 18 13  1  0  0  0
 20 21  1  0  0  0
 25 16  1  0  0  0
 25 19  1  0  0  0
  1  5  2  0  0  0
  2  6  2  0  0  0
  3 10  2  0  0  0
  4  8  2  0  0  0
  7 15  2  0  0  0
  9 14  2  0  0  0
 11 12  2  0  0  0
 13 16  2  0  0  0
 20 22  2  0  0  0
 25 23  2  0  0  0
 25 24  2  0  0  0
M  CHG  2  20   1  21  -1
M  END
> <rmsd>
0.565262198

$$$$
ZINC64873552


 26 27  0  0  0  0  0  0  0  0999 V2000
    1.2989   -1.0072   -0.8025 C   0  0  0  0  0
    2.4061    1.1058   -1.1845 C   0  0  0  0  0
   -3.2291   -2.2214    0.7646 C   0  0  0  0  0
    0.2700   -0.3468   -0.1311 C   0  0  0  0  0
    1.3772    1.7663   -0.5131 C   0  0  0  0  0
   -3.5024   -0.9397    1.2423 C   0  0  0  0  0
   -3.8333   -0.1662   -1.0225 C   0  0  0  0  0
    2.3670   -0.2809   -1.3291 C   0  0  0  0  0
   -3.2579   -2.4756   -0.6066 C   0  0  0  0  0
   -3.5601   -1.4479   -1.5001 C   0  0  0  0  0
    0.3091    1.0400    0.0135 C   0  0  0  0  0
   -3.8044    0.0879    0.3488 C   0  0  0  0  0
    3.4524   -0.9773   -2.0384 C   0  0  0  0  0
   -0.8552    3.0775    0.9279 C   0  0  0  0  0
   -3.5957   -1.6961   -2.9724 C   0  0  0  0  0
   -3.9813   -4.8900   -0.5823 C   0  0  0  0  0
   -1.5335   -4.3091   -0.7417 C   0  0  0  0  0
   -2.1343    3.3783    1.6989 C   0  0  0  0  0
   -3.3436    3.6452    0.8076 C   0  0  0  0  0
   -3.7322    2.4340   -0.0336 C   0  0  0  0  0
   -2.9620   -3.8557   -1.0941 C   0  0  0  0  0
   -0.7351    1.7103    0.6941 N   0  0  0  0  0
    4.4267   -0.2830   -2.5153 O   0  0  0  0  0
    3.3923   -2.2582   -2.1592 O   0  0  0  0  0
   -0.0656    3.9590    0.6055 O   0  0  0  0  0
   -4.0724    1.3472    0.8178 O   0  0  0  0  0
  1  8  1  0  0  0
  2  5  1  0  0  0
  3  9  1  0  0  0
  4 11  1  0  0  0
  6 12  1  0  0  0
  7 10  1  0  0  0
  8 13  1  0  0  0
 11 22  1  0  0  0
 12 26  1  0  0  0
 13 23  1  0  0  0
 14 22  1  0  0  0
 15 10  1  0  0  0
 16 21  1  0  0  0
 17 21  1  0  0  0
 18 14  1  0  0  0
 18 19  1  0  0  0
 19 20  1  0  0  0
 20 26  1  0  0  0
 21  9  1  0  0  0
  1  4  2  0  0  0
  2  8  2  0  0  0
  3  6  2  0  0  0
  5 11  2  0  0  0
  7 12  2  0  0  0
  9 10  2  0  0  0
 13 24  2  0  0  0
 14 25  2  0  0  0
M  CHG  1  23  -1
M  END
> <rmsd>
0.415395498

$$$$
ZINC05521911


 26 27  0  0  0  0  0  0  0  0999 V2000
    1.2991   -1.0061   -0.8046 C   0  0  0  0  0
    2.4073    1.1069   -1.1841 C   0  0  0  0  0
   -3.2303   -2.2212    0.7646 C   0  0  0  0  0
   -3.5634   -1.4485   -1.5002 C   0  0  0  0  0
    0.2697   -0.3459   -0.1339 C   0  0  0  0  0
    1.3777    1.7672   -0.5135 C   0  0  0  0  0
   -3.5020   -0.9390    1.2420 C   0  0  0  0  0
   -3.8351   -0.1664   -1.0228 C   0  0  0  0  0
    2.3680   -0.2798   -1.3296 C   0  0  0  0  0
   -3.2610   -2.4759   -0.6064 C   0  0  0  0  0
    0.3089    1.0408    0.0116 C   0  0  0  0  0
   -3.8044    0.0884    0.3483 C   0  0  0  0  0
    3.4537   -0.9767   -2.0382 C   0  0  0  0  0
   -0.8549    3.0776    0.9279 C   0  0  0  0  0
   -3.9835   -4.8885   -0.5478 C   0  0  0  0  0
   -1.5385   -4.3116   -0.7079 C   0  0  0  0  0
   -3.0336   -4.0118   -2.6717 C   0  0  0  0  0
   -2.1337    3.3779    1.6998 C   0  0  0  0  0
   -3.3434    3.6454    0.8093 C   0  0  0  0  0
   -3.7325    2.4347   -0.0325 C   0  0  0  0  0
   -2.9708   -3.8467   -1.1168 C   0  0  0  0  0
   -0.7350    1.7106    0.6932 N   0  0  0  0  0
    4.4288   -0.2828   -2.5138 O   0  0  0  0  0
    3.3926   -2.2573   -2.1595 O   0  0  0  0  0
   -0.0656    3.9594    0.6057 O   0  0  0  0  0
   -4.0722    1.3473    0.8184 O   0  0  0  0  0
  1  9  1  0  0  0
  2  6  1  0  0  0
  3 10  1  0  0  0
  4  8  1  0  0  0
  5 11  1  0  0  0
  7 12  1  0  0  0
  9 13  1  0  0  0
 11 22  1  0  0  0
 12 26  1  0  0  0
 13 23  1  0  0  0
 14 22  1  0  0  0
 15 21  1  0  0  0
 16 21  1  0  0  0
 17 21  1  0  0  0
 18 14  1  0  0  0
 18 19  1  0  0  0
 19 20  1  0  0  0
 20 26  1  0  0  0
 21 10  1  0  0  0
  1  5  2  0  0  0
  2  9  2  0  0  0
  3  7  2  0  0  0
  4 10  2  0  0  0
  6 11  2  0  0  0
  8 12  2  0  0  0
 13 24  2  0  0  0
 14 25  2  0  0  0
M  CHG  1  23  -1
M  END
> <rmsd>
0.41499573

$$$$
ZINC91154603


 24 26  0  0  0  0  0  0  0  0999 V2000
   -3.6566   -0.7323   -1.5113 C   0  0  0  0  0
   -3.6117   -2.1173   -1.6699 C   0  0  0  0  0
   -3.1016   -0.9820    0.8268 C   0  0  0  0  0
    2.8143   -1.1024    0.8053 C   0  0  0  0  0
   -3.4014   -0.1646   -0.2629 C   0  0  0  0  0
    2.1568   -0.5669   -0.2752 C   0  0  0  0  0
   -3.0568   -2.3671    0.6683 C   0  0  0  0  0
   -3.3119   -2.9348   -0.5802 C   0  0  0  0  0
    0.9167   -0.1453    0.2409 C   0  0  0  0  0
   -0.1997    0.5095   -0.4884 C   0  0  0  0  0
   -2.3745    3.3597    0.4436 C   0  0  0  0  0
   -3.1962    2.8964    1.6310 C   0  0  0  0  0
   -3.4494    1.3346   -0.0911 C   0  0  0  0  0
   -2.1211    2.0677   -0.3023 C   0  0  0  0  0
    0.7914   -0.3919    1.5477 N   0  0  0  0  0
    1.9612   -0.9743    1.8617 N   0  0  0  0  0
   -0.9839    1.3745    0.2581 N   0  0  0  0  0
    2.6625   -0.4859   -1.5827 N   0  0  0  0  0
    3.8168   -0.9314   -1.8336 O   0  0  0  0  0
   -0.3792    0.2440   -1.6740 O   0  0  0  0  0
    1.9575    0.0314   -2.4932 O   0  0  0  0  0
   -3.9300    1.7381    1.2075 O   0  0  0  0  0
   -2.7683   -3.1397    1.7253 F   0  0  0  0  0
   -3.2578   -4.6435   -0.7821 Cl  0  0  0  0  0
  1  2  1  0  0  0
  3  5  1  0  0  0
  4 16  1  0  0  0
  6  9  1  0  0  0
  6 18  1  0  0  0
  7  8  1  0  0  0
  7 23  1  0  0  0
  8 24  1  0  0  0
  9 10  1  0  0  0
 10 17  1  0  0  0
 11 12  1  0  0  0
 11 14  1  0  0  0
 12 22  1  0  0  0
 13  5  1  0  0  0
 13 14  1  0  0  0
 13 22  1  0  0  0
 14 17  1  0  0  0
 16 15  1  0  0  0
 18 19  1  0  0  0
  1  5  2  0  0  0
  2  8  2  0  0  0
  3  7  2  0  0  0
  4  6  2  0  0  0
  9 15  2  0  0  0
 10 20  2  0  0  0
 18 21  2  0  0  0
M  CHG  2  18   1  19  -1
M  END
> <rmsd>
0.329367429

$$$$
ZINC91154603


 24 26  0  0  0  0  0  0  0  0999 V2000
   -3.1017   -0.9825    0.8269 C   0  0  0  0  0
   -3.0578   -2.3675    0.6681 C   0  0  0  0  0
   -3.6568   -0.7319   -1.5111 C   0  0  0  0  0
    2.8144   -1.1022    0.8056 C   0  0  0  0  0
   -3.4013   -0.1646   -0.2626 C   0  0  0  0  0
    2.1569   -0.5667   -0.2748 C   0  0  0  0  0
   -3.6127   -2.1170   -1.6699 C   0  0  0  0  0
   -3.3132   -2.9348   -0.5803 C   0  0  0  0  0
    0.9168   -0.1451    0.2412 C   0  0  0  0  0
   -0.1996    0.5095   -0.4881 C   0  0  0  0  0
   -2.3745    3.3597    0.4438 C   0  0  0  0  0
   -3.1962    2.8964    1.6312 C   0  0  0  0  0
   -3.4493    1.3346   -0.0909 C   0  0  0  0  0
   -2.1211    2.0677   -0.3021 C   0  0  0  0  0
    0.7915   -0.3918    1.5480 N   0  0  0  0  0
    1.9613   -0.9741    1.8620 N   0  0  0  0  0
   -0.9839    1.3745    0.2583 N   0  0  0  0  0
    2.6626   -0.4858   -1.5824 N   0  0  0  0  0
    3.8169   -0.9312   -1.8333 O   0  0  0  0  0
   -0.3791    0.2440   -1.6737 O   0  0  0  0  0
    1.9576    0.0314   -2.4929 O   0  0  0  0  0
   -3.9300    1.7381    1.2078 O   0  0  0  0  0
   -3.8595   -2.6473   -2.8762 F   0  0  0  0  0
   -3.2577   -4.6449   -0.7701 Cl  0  0  0  0  0
  1  2  1  0  0  0
  3  5  1  0  0  0
  4 16  1  0  0  0
  6  9  1  0  0  0
  6 18  1  0  0  0
  7  8  1  0  0  0
  7 23  1  0  0  0
  8 24  1  0  0  0
  9 10  1  0  0  0
 10 17  1  0  0  0
 11 12  1  0  0  0
 11 14  1  0  0  0
 12 22  1  0  0  0
 13  5  1  0  0  0
 13 14  1  0  0  0
 13 22  1  0  0  0
 14 17  1  0  0  0
 16 15  1  0  0  0
 18 19  1  0  0  0
  1  5  2  0  0  0
  2  8  2  0  0  0
  3  7  2  0  0  0
  4  6  2  0  0  0
  9 15  2  0  0  0
 10 20  2  0  0  0
 18 21  2  0  0  0
M  CHG  2  18   1  19  -1
M  END
> <rmsd>
0.329419464

$$$$
ZINC58421370


 23 24  0  0  0  0  0  0  0  0999 V2000
   -0.0415    2.7705   -1.2938 C   0  0  0  0  0
   -2.4192   -2.2371   -1.8138 C   0  0  0  0  0
   -3.2389   -2.5895    0.4314 C   0  0  0  0  0
   -2.3837   -0.8617   -1.5851 C   0  0  0  0  0
   -3.2034   -1.2141    0.6603 C   0  0  0  0  0
    1.0166    2.8892   -2.1947 C   0  0  0  0  0
    0.9956    0.8106   -0.3343 C   0  0  0  0  0
    2.0537    0.9294   -1.2353 C   0  0  0  0  0
   -0.0520    1.7312   -0.3634 C   0  0  0  0  0
   -2.8468   -3.1011   -0.8057 C   0  0  0  0  0
   -2.7757   -0.3501   -0.3480 C   0  0  0  0  0
    2.0642    1.9687   -2.1656 C   0  0  0  0  0
    3.1432   -0.0638   -1.1740 C   0  0  0  0  0
   -3.8239   -6.2134   -2.3375 C   0  0  0  0  0
   -3.1215   -4.8728   -2.3682 C   0  0  0  0  0
   -1.1354    1.6100    0.5587 N   0  0  0  0  0
    3.0442   -1.1316   -1.8839 O   0  0  0  0  0
    4.1520    0.1745   -0.4125 O   0  0  0  0  0
   -3.6855    1.6709    0.9988 O   0  0  0  0  0
   -2.8607    2.0609   -1.3394 O   0  0  0  0  0
   -2.8813   -4.4432   -1.0289 O   0  0  0  0  0
   -2.7297    1.3952   -0.0576 S   0  0  0  0  0
    3.3550    2.1516   -3.2979 Cl  0  0  0  0  0
  1  9  1  0  0  0
  2 10  1  0  0  0
  3  5  1  0  0  0
  4 11  1  0  0  0
  6 12  1  0  0  0
  7  8  1  0  0  0
  8 13  1  0  0  0
  9 16  1  0  0  0
 10 21  1  0  0  0
 12 23  1  0  0  0
 13 17  1  0  0  0
 14 15  1  0  0  0
 15 21  1  0  0  0
 22 11  1  0  0  0
 22 16  1  0  0  0
  1  6  2  0  0  0
  2  4  2  0  0  0
  3 10  2  0  0  0
  5 11  2  0  0  0
  7  9  2  0  0  0
  8 12  2  0  0  0
 13 18  2  0  0  0
 22 19  2  0  0  0
 22 20  2  0  0  0
M  CHG  1  17  -1
M  END
> <rmsd>
0.710808039

$$$$
ZINC58421370


 23 24  0  0  0  0  0  0  0  0999 V2000
   -0.1101    2.5045   -1.5775 C   0  0  0  0  0
   -2.9059   -2.3062   -1.7802 C   0  0  0  0  0
   -3.5354   -2.5673    0.5376 C   0  0  0  0  0
   -2.7428   -0.9353   -1.5816 C   0  0  0  0  0
   -3.3723   -1.1964    0.7364 C   0  0  0  0  0
    0.8645    2.5293   -2.5750 C   0  0  0  0  0
    0.8582    0.4802   -0.6820 C   0  0  0  0  0
    1.8328    0.5050   -1.6796 C   0  0  0  0  0
   -0.1133    1.4799   -0.6309 C   0  0  0  0  0
   -3.3022   -3.1223   -0.7207 C   0  0  0  0  0
   -2.9760   -0.3803   -0.3233 C   0  0  0  0  0
    1.8359    1.5296   -2.6261 C   0  0  0  0  0
    2.8432   -0.5700   -1.7011 C   0  0  0  0  0
   -4.6566   -6.1655   -2.0963 C   0  0  0  0  0
   -3.8587   -4.8847   -2.2173 C   0  0  0  0  0
   -1.1111    1.4548    0.3900 N   0  0  0  0  0
    2.5956   -1.6348   -2.3786 O   0  0  0  0  0
    3.9346   -0.4031   -1.0413 O   0  0  0  0  0
   -3.5961    1.7212    1.0640 O   0  0  0  0  0
   -2.9675    2.0183   -1.3476 O   0  0  0  0  0
   -3.4611   -4.4600   -0.9145 O   0  0  0  0  0
   -2.7682    1.3591   -0.0712 S   0  0  0  0  0
    3.0246    1.5974   -3.8767 Cl  0  0  0  0  0
  1  9  1  0  0  0
  2 10  1  0  0  0
  3  5  1  0  0  0
  4 11  1  0  0  0
  6 12  1  0  0  0
  7  8  1  0  0  0
  8 13  1  0  0  0
  9 16  1  0  0  0
 10 21  1  0  0  0
 12 23  1  0  0  0
 13 17  1  0  0  0
 14 15  1  0  0  0
 15 21  1  0  0  0
 22 11  1  0  0  0
 22 16  1  0  0  0
  1  6  2  0  0  0
  2  4  2  0  0  0
  3 10  2  0  0  0
  5 11  2  0  0  0
  7  9  2  0  0  0
  8 12  2  0  0  0
 13 18  2  0  0  0
 22 19  2  0  0  0
 22 20  2  0  0  0
M  CHG  1  17  -1
M  END
> <rmsd>
0.529363275

$$$$
ZINC08715807


 23 24  0  0  0  0  0  0  0  0999 V2000
    0.8855    2.5197   -2.5543 C   0  0  0  0  0
    1.8529    1.5160   -2.6013 C   0  0  0  0  0
   -0.0948    2.4976   -1.5623 C   0  0  0  0  0
    0.8597    0.4679   -0.6642 C   0  0  0  0  0
   -2.9186   -2.3228   -1.7611 C   0  0  0  0  0
   -3.3863   -1.1772    0.7391 C   0  0  0  0  0
    1.8400    0.4901   -1.6562 C   0  0  0  0  0
   -3.3254   -3.1221   -0.6928 C   0  0  0  0  0
   -0.1078    1.4717   -0.6173 C   0  0  0  0  0
   -2.7457   -0.9507   -1.5793 C   0  0  0  0  0
   -2.9795   -0.3779   -0.3292 C   0  0  0  0  0
   -3.5592   -2.5493    0.5573 C   0  0  0  0  0
    2.8612   -0.5690   -1.7065 C   0  0  0  0  0
   -3.4985   -4.5879   -0.9284 C   0  0  0  0  0
   -2.1324   -0.8617   -3.8753 C   0  0  0  0  0
   -1.1116    1.4489    0.3976 N   0  0  0  0  0
    2.8274   -1.5046   -0.8223 O   0  0  0  0  0
    3.7547   -0.5248   -2.6329 O   0  0  0  0  0
   -3.5995    1.7240    1.0577 O   0  0  0  0  0
   -2.9557    2.0223   -1.3498 O   0  0  0  0  0
   -2.3471   -0.1887   -2.6366 O   0  0  0  0  0
   -2.7663    1.3604   -0.0733 S   0  0  0  0  0
   -4.0641   -3.5068    1.9018 Cl  0  0  0  0  0
  1  2  1  0  0  0
  3  9  1  0  0  0
  4  7  1  0  0  0
  5  8  1  0  0  0
  6 12  1  0  0  0
  7 13  1  0  0  0
  9 16  1  0  0  0
 10 11  1  0  0  0
 10 21  1  0  0  0
 12 23  1  0  0  0
 13 17  1  0  0  0
 14  8  1  0  0  0
 15 21  1  0  0  0
 22 11  1  0  0  0
 22 16  1  0  0  0
  1  3  2  0  0  0
  2  7  2  0  0  0
  4  9  2  0  0  0
  5 10  2  0  0  0
  6 11  2  0  0  0
  8 12  2  0  0  0
 13 18  2  0  0  0
 22 19  2  0  0  0
 22 20  2  0  0  0
M  CHG  1  17  -1
M  END
> <rmsd>
0.51491344

$$$$
ZINC35397731


 23 24  0  0  0  0  0  0  0  0999 V2000
   -3.5907   -2.5244    0.5823 C   0  0  0  0  0
   -3.3575   -3.1220   -0.6562 C   0  0  0  0  0
   -3.4026   -1.1514    0.7408 C   0  0  0  0  0
   -2.9360   -2.3466   -1.7364 C   0  0  0  0  0
    0.8740    0.4580   -0.6653 C   0  0  0  0  0
   -0.0694    2.4377   -1.5860 C   0  0  0  0  0
    1.8389    0.4888   -1.6661 C   0  0  0  0  0
   -0.1018    1.4473   -0.6176 C   0  0  0  0  0
   -2.9811   -0.3760   -0.3393 C   0  0  0  0  0
   -2.7478   -0.9736   -1.5780 C   0  0  0  0  0
    1.7843    1.5219   -2.5878 C   0  0  0  0  0
    2.8715   -0.5605   -1.7146 C   0  0  0  0  0
    2.5293    0.8864   -4.8684 C   0  0  0  0  0
    3.9997    2.2838   -3.4077 C   0  0  0  0  0
    0.8519    2.5007   -2.5735 N   0  0  0  0  0
   -1.1131    1.4427    0.4050 N   0  0  0  0  0
    2.7647    1.5598   -3.6108 N   0  0  0  0  0
    2.6381   -1.6271   -2.3966 O   0  0  0  0  0
    3.9721   -0.3755   -1.0730 O   0  0  0  0  0
   -3.5949    1.7268    1.0491 O   0  0  0  0  0
   -2.9396    2.0260   -1.3552 O   0  0  0  0  0
   -2.7614    1.3434   -0.0818 S   0  0  0  0  0
   -2.2245   -0.0595   -2.9465 Cl  0  0  0  0  0
  1  2  1  0  0  0
  3  9  1  0  0  0
  4 10  1  0  0  0
  5  8  1  0  0  0
  6 15  1  0  0  0
  7 11  1  0  0  0
  7 12  1  0  0  0
  8 16  1  0  0  0
 10 23  1  0  0  0
 11 17  1  0  0  0
 12 18  1  0  0  0
 13 17  1  0  0  0
 14 17  1  0  0  0
 22  9  1  0  0  0
 22 16  1  0  0  0
  1  3  2  0  0  0
  2  4  2  0  0  0
  5  7  2  0  0  0
  6  8  2  0  0  0
  9 10  2  0  0  0
 11 15  2  0  0  0
 12 19  2  0  0  0
 22 20  2  0  0  0
 22 21  2  0  0  0
M  CHG  1  18  -1
M  END
> <rmsd>
0.502096415

$$$$
ZINC35397731


 23 24  0  0  0  0  0  0  0  0999 V2000
   -3.3005   -2.5515    0.4731 C   0  0  0  0  0
   -2.9081   -3.1059   -0.7452 C   0  0  0  0  0
   -3.2368   -1.1712    0.6641 C   0  0  0  0  0
   -2.4521   -2.2800   -1.7726 C   0  0  0  0  0
    1.0098    0.7917   -0.3204 C   0  0  0  0  0
    0.0011    2.7090   -1.3021 C   0  0  0  0  0
    2.0569    0.9161   -1.2269 C   0  0  0  0  0
   -0.0415    1.7011   -0.3522 C   0  0  0  0  0
   -2.7808   -0.3453   -0.3633 C   0  0  0  0  0
   -2.3884   -0.8998   -1.5817 C   0  0  0  0  0
    2.0054    1.9589   -2.1378 C   0  0  0  0  0
    3.1693   -0.0487   -1.1914 C   0  0  0  0  0
    3.0042    1.4259   -4.3466 C   0  0  0  0  0
    4.2193    2.9058   -2.7398 C   0  0  0  0  0
    1.0011    2.8618   -2.1990 N   0  0  0  0  0
   -1.1386    1.5988    0.5720 N   0  0  0  0  0
    3.0694    2.0919   -3.0650 N   0  0  0  0  0
    3.0846   -1.1172   -1.9043 O   0  0  0  0  0
    4.1884    0.2093   -0.4484 O   0  0  0  0  0
   -3.6836    1.6770    0.9861 O   0  0  0  0  0
   -2.8366    2.0712   -1.3434 O   0  0  0  0  0
   -2.7223    1.3808   -0.0668 S   0  0  0  0  0
   -1.8160    0.0777   -2.8852 Cl  0  0  0  0  0
  1  2  1  0  0  0
  3  9  1  0  0  0
  4 10  1  0  0  0
  5  8  1  0  0  0
  6 15  1  0  0  0
  7 11  1  0  0  0
  7 12  1  0  0  0
  8 16  1  0  0  0
 10 23  1  0  0  0
 11 17  1  0  0  0
 12 18  1  0  0  0
 13 17  1  0  0  0
 14 17  1  0  0  0
 22  9  1  0  0  0
 22 16  1  0  0  0
  1  3  2  0  0  0
  2  4  2  0  0  0
  5  7  2  0  0  0
  6  8  2  0  0  0
  9 10  2  0  0  0
 11 15  2  0  0  0
 12 19  2  0  0  0
 22 20  2  0  0  0
 22 21  2  0  0  0
M  CHG  1  18  -1
M  END
> <rmsd>
0.682310164

$$$$
ZINC91054510


 23 24  0  0  0  0  0  0  0  0999 V2000
    0.7231    2.4632   -2.7252 C   0  0  0  0  0
    1.5608    1.3648   -2.9174 C   0  0  0  0  0
   -3.5257   -0.8293   -1.5369 C   0  0  0  0  0
   -3.7552   -2.1890   -1.7464 C   0  0  0  0  0
   -3.2120   -2.6368    0.5648 C   0  0  0  0  0
   -0.1796    2.4744   -1.6618 C   0  0  0  0  0
   -2.9825   -1.2769    0.7743 C   0  0  0  0  0
    0.5933    0.2884   -0.9829 C   0  0  0  0  0
   -0.2445    1.3869   -0.7906 C   0  0  0  0  0
    1.4960    0.2773   -2.0462 C   0  0  0  0  0
   -3.1393   -0.3731   -0.2766 C   0  0  0  0  0
   -3.5984   -3.0928   -0.6956 C   0  0  0  0  0
   -1.0645    3.6646   -1.4811 C   0  0  0  0  0
   -2.5710   -0.8212    2.1359 C   0  0  0  0  0
    0.5213   -0.8773   -0.0449 C   0  0  0  0  0
   -1.1721    1.4015    0.3010 N   0  0  0  0  0
    2.3622   -0.8300   -2.2633 N   0  0  0  0  0
    3.4900   -0.8329   -1.7160 O   0  0  0  0  0
    1.9718   -1.7698   -2.9952 O   0  0  0  0  0
   -3.5909    1.7507    1.1416 O   0  0  0  0  0
   -3.1220    2.0220   -1.3091 O   0  0  0  0  0
   -2.8565    1.3588   -0.0469 S   0  0  0  0  0
   -3.8807   -4.7709   -0.9549 Cl  0  0  0  0  0
  1  6  1  0  0  0
  2 10  1  0  0  0
  3 11  1  0  0  0
  4 12  1  0  0  0
  5  7  1  0  0  0
  8  9  1  0  0  0
  9 16  1  0  0  0
 10 17  1  0  0  0
 12 23  1  0  0  0
 13  6  1  0  0  0
 14  7  1  0  0  0
 15  8  1  0  0  0
 17 18  1  0  0  0
 22 11  1  0  0  0
 22 16  1  0  0  0
  1  2  2  0  0  0
  3  4  2  0  0  0
  5 12  2  0  0  0
  6  9  2  0  0  0
  7 11  2  0  0  0
  8 10  2  0  0  0
 17 19  2  0  0  0
 22 20  2  0  0  0
 22 21  2  0  0  0
M  CHG  2  17   1  18  -1
M  END
> <rmsd>
0.401180387

$$$$
ZINC91054510


 23 24  0  0  0  0  0  0  0  0999 V2000
    0.7445    2.4923   -2.6986 C   0  0  0  0  0
    1.5786    1.3930   -2.9010 C   0  0  0  0  0
   -3.5016   -1.1477    0.7865 C   0  0  0  0  0
   -3.7355   -2.5121    0.6155 C   0  0  0  0  0
   -3.2504   -2.2997   -1.7418 C   0  0  0  0  0
   -0.1635    2.4935   -1.6397 C   0  0  0  0  0
   -3.0165   -0.9353   -1.5707 C   0  0  0  0  0
    0.5968    0.2955   -0.9856 C   0  0  0  0  0
   -0.2374    1.3950   -0.7832 C   0  0  0  0  0
    1.5048    0.2945   -2.0445 C   0  0  0  0  0
   -3.1421   -0.3593   -0.3066 C   0  0  0  0  0
   -3.6100   -3.0882   -0.6486 C   0  0  0  0  0
   -1.0443    3.6850   -1.4478 C   0  0  0  0  0
   -2.6323   -0.1195   -2.7615 C   0  0  0  0  0
    0.5151   -0.8820   -0.0633 C   0  0  0  0  0
   -1.1704    1.3993    0.3039 N   0  0  0  0  0
    2.3674   -0.8135   -2.2716 N   0  0  0  0  0
    3.4924   -0.8284   -1.7188 O   0  0  0  0  0
    1.9768   -1.7421   -3.0177 O   0  0  0  0  0
   -3.5920    1.7478    1.1369 O   0  0  0  0  0
   -3.1095    2.0491   -1.3076 O   0  0  0  0  0
   -2.8532    1.3683   -0.0529 S   0  0  0  0  0
   -3.8998   -4.7719   -0.8594 Cl  0  0  0  0  0
  1  6  1  0  0  0
  2 10  1  0  0  0
  3 11  1  0  0  0
  4 12  1  0  0  0
  5  7  1  0  0  0
  8  9  1  0  0  0
  9 16  1  0  0  0
 10 17  1  0  0  0
 12 23  1  0  0  0
 13  6  1  0  0  0
 14  7  1  0  0  0
 15  8  1  0  0  0
 17 18  1  0  0  0
 22 11  1  0  0  0
 22 16  1  0  0  0
  1  2  2  0  0  0
  3  4  2  0  0  0
  5 12  2  0  0  0
  6  9  2  0  0  0
  7 11  2  0  0  0
  8 10  2  0  0  0
 17 19  2  0  0  0
 22 20  2  0  0  0
 22 21  2  0  0  0
M  CHG  2  17   1  18  -1
M  END
> <rmsd>
0.39369449

$$$$
ZINC00792949


 23 24  0  0  0  0  0  0  0  0999 V2000
    1.6594    2.5841   -1.4569 C   0  0  0  0  0
   -3.1134   -3.1566   -0.5869 C   0  0  0  0  0
    0.5170    2.6286   -0.6577 C   0  0  0  0  0
    2.2861    1.3640   -1.7103 C   0  0  0  0  0
   -3.1883   -2.6144    0.6960 C   0  0  0  0  0
   -2.7941   -0.9440   -1.5034 C   0  0  0  0  0
    0.6283    0.2329   -0.3653 C   0  0  0  0  0
   -2.9163   -2.3215   -1.6867 C   0  0  0  0  0
    0.0015    1.4531   -0.1120 C   0  0  0  0  0
    1.7706    0.1884   -1.1645 C   0  0  0  0  0
   -2.8691   -0.4018   -0.2204 C   0  0  0  0  0
   -3.0662   -1.2370    0.8793 C   0  0  0  0  0
   -2.8391   -2.8940   -3.0402 C   0  0  0  0  0
   -1.1761    1.4994    0.7123 N   0  0  0  0  0
    2.4084   -1.0533   -1.4238 N   0  0  0  0  0
   -2.6569   -2.1015   -4.0391 O   0  0  0  0  0
    3.4343   -1.0709   -2.1462 O   0  0  0  0  0
   -2.9567   -4.1688   -3.1818 O   0  0  0  0  0
    1.9293   -2.0994   -0.9232 O   0  0  0  0  0
   -3.7347    1.7794    0.8835 O   0  0  0  0  0
   -2.6628    1.9248   -1.3813 O   0  0  0  0  0
   -2.7103    1.3353   -0.0512 S   0  0  0  0  0
   -3.1658   -0.6160    2.4874 Cl  0  0  0  0  0
  1  3  1  0  0  0
  2  8  1  0  0  0
  4 10  1  0  0  0
  5 12  1  0  0  0
  6 11  1  0  0  0
  7  9  1  0  0  0
  8 13  1  0  0  0
  9 14  1  0  0  0
 10 15  1  0  0  0
 12 23  1  0  0  0
 13 16  1  0  0  0
 15 17  1  0  0  0
 22 11  1  0  0  0
 22 14  1  0  0  0
  1  4  2  0  0  0
  2  5  2  0  0  0
  3  9  2  0  0  0
  6  8  2  0  0  0
  7 10  2  0  0  0
 11 12  2  0  0  0
 13 18  2  0  0  0
 15 19  2  0  0  0
 22 20  2  0  0  0
 22 21  2  0  0  0
M  CHG  3  15   1  16  -1  17  -1
M  END
> <rmsd>
0.565810084

$$$$
ZINC55612183


 24 25  0  0  0  0  0  0  0  0999 V2000
   -3.2848   -2.2357   -1.8237 C   0  0  0  0  0
   -3.1483   -0.8653   -1.6026 C   0  0  0  0  0
    0.8306    0.4724   -0.6478 C   0  0  0  0  0
   -2.9464   -2.6497    0.5323 C   0  0  0  0  0
    1.0271    2.6499   -2.3806 C   0  0  0  0  0
    1.8361    0.5063   -1.6139 C   0  0  0  0  0
   -2.8098   -1.2792    0.7535 C   0  0  0  0  0
   -0.0768    1.5272   -0.5482 C   0  0  0  0  0
   -3.1840   -3.1279   -0.7562 C   0  0  0  0  0
    1.9345    1.5951   -2.4802 C   0  0  0  0  0
    0.0215    2.6159   -1.4145 C   0  0  0  0  0
   -2.9108   -0.3870   -0.3140 C   0  0  0  0  0
    2.7923   -0.6082   -1.7165 C   0  0  0  0  0
   -2.5578   -0.7994    2.1456 C   0  0  0  0  0
   -3.2036   -5.3209    0.1635 C   0  0  0  0  0
   -1.1052    1.4901    0.4416 N   0  0  0  0  0
    2.6774   -1.5999   -0.9031 O   0  0  0  0  0
    3.7122   -0.5544   -2.6161 O   0  0  0  0  0
   -3.6147    1.7123    1.0363 O   0  0  0  0  0
   -2.9174    2.0035   -1.3571 O   0  0  0  0  0
   -3.3179   -4.4649   -0.9722 O   0  0  0  0  0
    2.8969    1.6381   -3.4123 F   0  0  0  0  0
   -0.8452    3.6348   -1.3274 F   0  0  0  0  0
   -2.7450    1.3582   -0.0698 S   0  0  0  0  0
  1  9  1  0  0  0
  2 12  1  0  0  0
  3  8  1  0  0  0
  4  7  1  0  0  0
  5 11  1  0  0  0
  6 10  1  0  0  0
  6 13  1  0  0  0
  8 16  1  0  0  0
  9 21  1  0  0  0
 10 22  1  0  0  0
 11 23  1  0  0  0
 13 17  1  0  0  0
 14  7  1  0  0  0
 15 21  1  0  0  0
 24 12  1  0  0  0
 24 16  1  0  0  0
  1  2  2  0  0  0
  3  6  2  0  0  0
  4  9  2  0  0  0
  5 10  2  0  0  0
  7 12  2  0  0  0
  8 11  2  0  0  0
 13 18  2  0  0  0
 24 19  2  0  0  0
 24 20  2  0  0  0
M  CHG  1  17  -1
M  END
> <rmsd>
0.579464674

$$$$
ZINC35397737


 24 25  0  0  0  0  0  0  0  0999 V2000
   -3.3283   -3.1260   -0.6951 C   0  0  0  0  0
   -2.9139   -2.3228   -1.7574 C   0  0  0  0  0
    0.8689    0.4552   -0.6667 C   0  0  0  0  0
   -3.3985   -1.1865    0.7438 C   0  0  0  0  0
   -0.0881    2.4188   -1.6074 C   0  0  0  0  0
    1.8279    0.4772   -1.6731 C   0  0  0  0  0
   -0.1109    1.4410   -0.6261 C   0  0  0  0  0
   -3.5707   -2.5578    0.5556 C   0  0  0  0  0
   -2.7417   -0.9516   -1.5693 C   0  0  0  0  0
   -2.9840   -0.3833   -0.3187 C   0  0  0  0  0
    1.7639    1.4981   -2.6077 C   0  0  0  0  0
    2.8648   -0.5683   -1.7140 C   0  0  0  0  0
    2.4988    0.8365   -4.8842 C   0  0  0  0  0
    3.9712    2.2587   -3.4498 C   0  0  0  0  0
    0.8273    2.4730   -2.6007 N   0  0  0  0  0
   -1.1164    1.4452    0.4020 N   0  0  0  0  0
    2.7383    1.5269   -3.6367 N   0  0  0  0  0
    2.6322   -1.6445   -2.3809 O   0  0  0  0  0
    3.9682   -0.3703   -1.0811 O   0  0  0  0  0
   -3.5959    1.7301    1.0542 O   0  0  0  0  0
   -2.9514    2.0099   -1.3552 O   0  0  0  0  0
   -3.9674   -3.3290    1.5764 F   0  0  0  0  0
   -2.3431   -0.1898   -2.5976 F   0  0  0  0  0
   -2.7673    1.3324   -0.0777 S   0  0  0  0  0
  1  8  1  0  0  0
  2  9  1  0  0  0
  3  7  1  0  0  0
  4 10  1  0  0  0
  5 15  1  0  0  0
  6 11  1  0  0  0
  6 12  1  0  0  0
  7 16  1  0  0  0
  8 22  1  0  0  0
  9 23  1  0  0  0
 11 17  1  0  0  0
 12 18  1  0  0  0
 13 17  1  0  0  0
 14 17  1  0  0  0
 24 10  1  0  0  0
 24 16  1  0  0  0
  1  2  2  0  0  0
  3  6  2  0  0  0
  4  8  2  0  0  0
  5  7  2  0  0  0
  9 10  2  0  0  0
 11 15  2  0  0  0
 12 19  2  0  0  0
 24 20  2  0  0  0
 24 21  2  0  0  0
M  CHG  1  18  -1
M  END
> <rmsd>
0.51242727

$$$$
ZINC35397737


 24 25  0  0  0  0  0  0  0  0999 V2000
   -2.8727   -3.1055   -0.7856 C   0  0  0  0  0
   -2.4299   -2.2512   -1.7954 C   0  0  0  0  0
    1.0043    0.7935   -0.3280 C   0  0  0  0  0
   -3.2275   -1.2065    0.6652 C   0  0  0  0  0
   -0.0182    2.6941   -1.3274 C   0  0  0  0  0
    2.0454    0.9108   -1.2421 C   0  0  0  0  0
   -0.0510    1.6982   -0.3647 C   0  0  0  0  0
   -3.2717   -2.5831    0.4447 C   0  0  0  0  0
   -2.3858   -0.8747   -1.5749 C   0  0  0  0  0
   -2.7846   -0.3522   -0.3446 C   0  0  0  0  0
    1.9843    1.9419   -2.1656 C   0  0  0  0  0
    3.1621   -0.0488   -1.2011 C   0  0  0  0  0
    2.9722    1.3857   -4.3735 C   0  0  0  0  0
    4.1905    2.8905   -2.7925 C   0  0  0  0  0
    0.9758    2.8399   -2.2320 N   0  0  0  0  0
   -1.1422    1.6028    0.5671 N   0  0  0  0  0
    3.0421    2.0678   -3.1007 N   0  0  0  0  0
    3.0777   -1.1265   -1.9001 O   0  0  0  0  0
    4.1845    0.2227   -0.4675 O   0  0  0  0  0
   -3.6853    1.6788    0.9932 O   0  0  0  0  0
   -2.8506    2.0563   -1.3434 O   0  0  0  0  0
   -3.6957   -3.4033    1.4151 F   0  0  0  0  0
   -1.9583   -0.0636   -2.5527 F   0  0  0  0  0
   -2.7288    1.3701   -0.0631 S   0  0  0  0  0
  1  8  1  0  0  0
  2  9  1  0  0  0
  3  7  1  0  0  0
  4 10  1  0  0  0
  5 15  1  0  0  0
  6 11  1  0  0  0
  6 12  1  0  0  0
  7 16  1  0  0  0
  8 22  1  0  0  0
  9 23  1  0  0  0
 11 17  1  0  0  0
 12 18  1  0  0  0
 13 17  1  0  0  0
 14 17  1  0  0  0
 24 10  1  0  0  0
 24 16  1  0  0  0
  1  2  2  0  0  0
  3  6  2  0  0  0
  4  8  2  0  0  0
  5  7  2  0  0  0
  9 10  2  0  0  0
 11 15  2  0  0  0
 12 19  2  0  0  0
 24 20  2  0  0  0
 24 21  2  0  0  0
M  CHG  1  18  -1
M  END
> <rmsd>
0.694795191

$$$$
ZINC08715820


 25 27  0  0  0  0  0  0  0  0999 V2000
   -3.9667   -3.3279    0.0738 C   0  0  0  0  0
   -3.6924   -2.3319    1.0063 C   0  0  0  0  0
    1.6945    3.1802   -1.2577 C   0  0  0  0  0
   -3.8857   -3.0486   -1.2907 C   0  0  0  0  0
   -3.3362   -1.0529    0.5781 C   0  0  0  0  0
    2.5140    2.1210   -1.6474 C   0  0  0  0  0
    0.5271    2.9299   -0.5363 C   0  0  0  0  0
   -3.0861   -0.1887   -3.5377 C   0  0  0  0  0
   -2.8119    0.8072   -2.6050 C   0  0  0  0  0
    0.9989    0.5612   -0.5947 C   0  0  0  0  0
   -3.5287   -1.7666   -1.7398 C   0  0  0  0  0
   -3.2499   -0.7539   -0.7914 C   0  0  0  0  0
    2.1663    0.8115   -1.3159 C   0  0  0  0  0
    0.1793    1.6204   -0.2048 C   0  0  0  0  0
   -3.4423   -1.4678   -3.1093 C   0  0  0  0  0
   -2.8928    0.5281   -1.2405 C   0  0  0  0  0
    3.0316   -0.3058   -1.7279 C   0  0  0  0  0
   -5.0473   -2.5202   -4.5137 C   0  0  0  0  0
   -1.0246    1.3623    0.5383 N   0  0  0  0  0
    2.6884   -1.5054   -1.4092 O   0  0  0  0  0
    4.1034   -0.0468   -2.3932 O   0  0  0  0  0
   -3.5333    1.8390    0.9036 O   0  0  0  0  0
   -2.3379    3.0583   -0.9359 O   0  0  0  0  0
   -3.7006   -2.4126   -4.0611 O   0  0  0  0  0
   -2.5254    1.8525   -0.1451 S   0  0  0  0  0
  1  2  1  0  0  0
  3  6  1  0  0  0
  4 11  1  0  0  0
  5 12  1  0  0  0
  7 14  1  0  0  0
  8 15  1  0  0  0
  9 16  1  0  0  0
 10 13  1  0  0  0
 11 12  1  0  0  0
 13 17  1  0  0  0
 14 19  1  0  0  0
 15 24  1  0  0  0
 17 20  1  0  0  0
 18 24  1  0  0  0
 25 16  1  0  0  0
 25 19  1  0  0  0
  1  4  2  0  0  0
  2  5  2  0  0  0
  3  7  2  0  0  0
  6 13  2  0  0  0
  8  9  2  0  0  0
 10 14  2  0  0  0
 11 15  2  0  0  0
 12 16  2  0  0  0
 17 21  2  0  0  0
 25 22  2  0  0  0
 25 23  2  0  0  0
M  CHG  1  20  -1
M  END
> <rmsd>
0.431563079

$$$$
ZINC08715820


 25 27  0  0  0  0  0  0  0  0999 V2000
   -2.9307   -3.1456    2.9149 C   0  0  0  0  0
   -2.7669   -1.7872    3.1694 C   0  0  0  0  0
    0.8241    2.4429   -2.6390 C   0  0  0  0  0
   -3.1087   -3.5945    1.6059 C   0  0  0  0  0
   -2.7803   -0.8725    2.1162 C   0  0  0  0  0
    1.8039    1.4505   -2.6629 C   0  0  0  0  0
   -0.1406    2.4465   -1.6314 C   0  0  0  0  0
   -3.3166   -2.2072   -1.8436 C   0  0  0  0  0
   -3.1527   -0.8488   -1.5889 C   0  0  0  0  0
    0.8544    0.4651   -0.6719 C   0  0  0  0  0
   -3.1250   -2.6878    0.5335 C   0  0  0  0  0
   -2.9584   -1.3065    0.7924 C   0  0  0  0  0
    1.8191    0.4615   -1.6793 C   0  0  0  0  0
   -0.1254    1.4576   -0.6479 C   0  0  0  0  0
   -3.3030   -3.1220   -0.7903 C   0  0  0  0  0
   -2.9748   -0.3999   -0.2800 C   0  0  0  0  0
    2.8533   -0.5856   -1.7055 C   0  0  0  0  0
   -4.8009   -4.9425   -1.1025 C   0  0  0  0  0
   -1.1204    1.4609    0.3905 N   0  0  0  0  0
    2.8455   -1.4871   -0.7858 O   0  0  0  0  0
    3.7318   -0.5656   -2.6468 O   0  0  0  0  0
   -3.5946    1.7257    1.0703 O   0  0  0  0  0
   -2.9842    1.9783   -1.3510 O   0  0  0  0  0
   -3.4661   -4.4446   -1.0891 O   0  0  0  0  0
   -2.7744    1.3329   -0.0649 S   0  0  0  0  0
  1  2  1  0  0  0
  3  6  1  0  0  0
  4 11  1  0  0  0
  5 12  1  0  0  0
  7 14  1  0  0  0
  8 15  1  0  0  0
  9 16  1  0  0  0
 10 13  1  0  0  0
 11 12  1  0  0  0
 13 17  1  0  0  0
 14 19  1  0  0  0
 15 24  1  0  0  0
 17 20  1  0  0  0
 18 24  1  0  0  0
 25 16  1  0  0  0
 25 19  1  0  0  0
  1  4  2  0  0  0
  2  5  2  0  0  0
  3  7  2  0  0  0
  6 13  2  0  0  0
  8  9  2  0  0  0
 10 14  2  0  0  0
 11 15  2  0  0  0
 12 16  2  0  0  0
 17 21  2  0  0  0
 25 22  2  0  0  0
 25 23  2  0  0  0
M  CHG  1  20  -1
M  END
> <rmsd>
0.53082329

$$$$
ZINC08715820


 25 27  0  0  0  0  0  0  0  0999 V2000
   -3.4948   -3.3762   -0.1974 C   0  0  0  0  0
   -3.2885   -2.4205    0.7931 C   0  0  0  0  0
    1.4647    3.7312   -1.2295 C   0  0  0  0  0
   -3.4849   -3.0024   -1.5415 C   0  0  0  0  0
   -3.0716   -1.0876    0.4434 C   0  0  0  0  0
    2.3700    2.7856   -1.7107 C   0  0  0  0  0
    0.3506    3.3207   -0.4972 C   0  0  0  0  0
   -3.0379    0.0619   -3.6096 C   0  0  0  0  0
   -2.8317    1.0175   -2.6191 C   0  0  0  0  0
    1.0473    1.0189   -0.7276 C   0  0  0  0  0
   -3.2681   -1.6651   -1.9118 C   0  0  0  0  0
   -3.0584   -0.6934   -0.9046 C   0  0  0  0  0
    2.1614    1.4294   -1.4598 C   0  0  0  0  0
    0.1420    1.9646   -0.2463 C   0  0  0  0  0
   -3.2548   -1.2712   -3.2598 C   0  0  0  0  0
   -2.8416    0.6439   -1.2749 C   0  0  0  0  0
    3.1171    0.4320   -1.9683 C   0  0  0  0  0
   -4.7945   -2.3835   -4.6908 C   0  0  0  0  0
   -1.0070    1.5414    0.5081 N   0  0  0  0  0
    2.9019   -0.8138   -1.7228 O   0  0  0  0  0
    4.1370    0.8380   -2.6416 O   0  0  0  0  0
   -3.5370    1.7435    0.9685 O   0  0  0  0  0
   -2.5246    3.1914   -0.8141 O   0  0  0  0  0
   -3.4508   -2.1732   -4.2664 O   0  0  0  0  0
   -2.5692    1.9243   -0.1022 S   0  0  0  0  0
  1  2  1  0  0  0
  3  6  1  0  0  0
  4 11  1  0  0  0
  5 12  1  0  0  0
  7 14  1  0  0  0
  8 15  1  0  0  0
  9 16  1  0  0  0
 10 13  1  0  0  0
 11 12  1  0  0  0
 13 17  1  0  0  0
 14 19  1  0  0  0
 15 24  1  0  0  0
 17 20  1  0  0  0
 18 24  1  0  0  0
 25 16  1  0  0  0
 25 19  1  0  0  0
  1  4  2  0  0  0
  2  5  2  0  0  0
  3  7  2  0  0  0
  6 13  2  0  0  0
  8  9  2  0  0  0
 10 14  2  0  0  0
 11 15  2  0  0  0
 12 16  2  0  0  0
 17 21  2  0  0  0
 25 22  2  0  0  0
 25 23  2  0  0  0
M  CHG  1  20  -1
M  END
> <rmsd>
0.594526887

$$$$
ZINC08714993


 25 27  0  0  0  0  0  0  0  0999 V2000
   -3.8635   -3.3241    0.0881 C   0  0  0  0  0
   -3.7119   -2.3082    1.0271 C   0  0  0  0  0
   -3.6774   -3.0551   -1.2682 C   0  0  0  0  0
   -3.3735   -1.0195    0.6137 C   0  0  0  0  0
    1.6328    1.7815   -1.7080 C   0  0  0  0  0
    1.6940   -0.4161   -0.7060 C   0  0  0  0  0
    0.5140    2.1011   -0.9388 C   0  0  0  0  0
    0.5752   -0.0964    0.0633 C   0  0  0  0  0
   -2.8071   -0.1861   -3.4769 C   0  0  0  0  0
   -2.6555    0.8297   -2.5378 C   0  0  0  0  0
   -3.3366   -1.7636   -1.7023 C   0  0  0  0  0
   -3.1824   -0.7306   -0.7473 C   0  0  0  0  0
    2.2228    0.5229   -1.5917 C   0  0  0  0  0
   -0.0147    1.1622   -0.0531 C   0  0  0  0  0
   -3.1454   -1.4749   -3.0634 C   0  0  0  0  0
   -2.8416    0.5608   -1.1815 C   0  0  0  0  0
    3.4039    0.1857   -2.4028 C   0  0  0  0  0
   -2.1133   -3.1802   -4.3605 C   0  0  0  0  0
   -1.1692    1.4912    0.7389 N   0  0  0  0  0
    3.9296   -0.9832   -2.2760 O   0  0  0  0  0
    3.8729    1.0707   -3.2122 O   0  0  0  0  0
   -3.7176    1.8644    0.8822 O   0  0  0  0  0
   -2.4203    3.1152   -0.8647 O   0  0  0  0  0
   -3.2817   -2.4391   -4.0210 O   0  0  0  0  0
   -2.6248    1.9104   -0.0767 S   0  0  0  0  0
  1  2  1  0  0  0
  3 11  1  0  0  0
  4 12  1  0  0  0
  5 13  1  0  0  0
  6  8  1  0  0  0
  7 14  1  0  0  0
  9 15  1  0  0  0
 10 16  1  0  0  0
 11 12  1  0  0  0
 13 17  1  0  0  0
 14 19  1  0  0  0
 15 24  1  0  0  0
 17 20  1  0  0  0
 18 24  1  0  0  0
 25 16  1  0  0  0
 25 19  1  0  0  0
  1  3  2  0  0  0
  2  4  2  0  0  0
  5  7  2  0  0  0
  6 13  2  0  0  0
  8 14  2  0  0  0
  9 10  2  0  0  0
 11 15  2  0  0  0
 12 16  2  0  0  0
 17 21  2  0  0  0
 25 22  2  0  0  0
 25 23  2  0  0  0
M  CHG  1  20  -1
M  END
> <rmsd>
0.467688322

$$$$
ZINC91054389


 25 27  0  0  0  0  0  0  0  0999 V2000
   -2.9768   -3.1494    2.9247 C   0  0  0  0  0
   -2.7477   -1.7991    3.1726 C   0  0  0  0  0
   -3.6423   -2.1702   -1.7945 C   0  0  0  0  0
   -3.2570   -3.5840    1.6289 C   0  0  0  0  0
   -2.7980   -0.8785    2.1255 C   0  0  0  0  0
   -3.5921   -3.0909   -0.7474 C   0  0  0  0  0
    0.6927    2.4207   -2.7648 C   0  0  0  0  0
    1.5354    1.3233   -2.9422 C   0  0  0  0  0
   -3.4134   -0.8200   -1.5465 C   0  0  0  0  0
   -3.3115   -2.6711    0.5631 C   0  0  0  0  0
   -3.0786   -1.2981    0.8151 C   0  0  0  0  0
   -0.2016    2.4475   -1.6947 C   0  0  0  0  0
    0.5893    0.2797   -0.9793 C   0  0  0  0  0
   -0.2533    1.3770   -0.8019 C   0  0  0  0  0
    1.4836    0.2528   -2.0494 C   0  0  0  0  0
   -3.1332   -0.3854   -0.2508 C   0  0  0  0  0
   -1.0918    3.6362   -1.5301 C   0  0  0  0  0
    0.5314   -0.8678   -0.0181 C   0  0  0  0  0
   -1.1760    1.4079    0.3008 N   0  0  0  0  0
    2.3545   -0.8537   -2.2517 N   0  0  0  0  0
    3.4865   -0.8396   -1.7134 O   0  0  0  0  0
    1.9636   -1.8098   -2.9619 O   0  0  0  0  0
   -3.5889    1.7519    1.1457 O   0  0  0  0  0
   -3.1332    1.9981   -1.3101 O   0  0  0  0  0
   -2.8601    1.3382   -0.0434 S   0  0  0  0  0
  1  2  1  0  0  0
  3  6  1  0  0  0
  4 10  1  0  0  0
  5 11  1  0  0  0
  7 12  1  0  0  0
  8 15  1  0  0  0
  9 16  1  0  0  0
 10 11  1  0  0  0
 13 14  1  0  0  0
 14 19  1  0  0  0
 15 20  1  0  0  0
 17 12  1  0  0  0
 18 13  1  0  0  0
 20 21  1  0  0  0
 25 16  1  0  0  0
 25 19  1  0  0  0
  1  4  2  0  0  0
  2  5  2  0  0  0
  3  9  2  0  0  0
  6 10  2  0  0  0
  7  8  2  0  0  0
 11 16  2  0  0  0
 12 14  2  0  0  0
 13 15  2  0  0  0
 20 22  2  0  0  0
 25 23  2  0  0  0
 25 24  2  0  0  0
M  CHG  2  20   1  21  -1
M  END
> <rmsd>
0.408324987

$$$$
ZINC91054389


 25 27  0  0  0  0  0  0  0  0999 V2000
   -4.0636   -3.3009    0.0319 C   0  0  0  0  0
   -3.7136   -2.3397    0.9756 C   0  0  0  0  0
   -3.4565   -0.0333   -3.5215 C   0  0  0  0  0
   -4.0886   -2.9722   -1.3238 C   0  0  0  0  0
   -3.3873   -1.0462    0.5672 C   0  0  0  0  0
   -3.7829   -1.3268   -3.1131 C   0  0  0  0  0
    1.5809    3.2579   -1.3760 C   0  0  0  0  0
    2.2804    2.2179   -1.9883 C   0  0  0  0  0
   -3.1066    0.9279   -2.5777 C   0  0  0  0  0
   -3.7630   -1.6752   -1.7527 C   0  0  0  0  0
   -3.4072   -0.6977   -0.7931 C   0  0  0  0  0
    0.4726    2.9775   -0.5770 C   0  0  0  0  0
    0.7630    0.6171   -1.0024 C   0  0  0  0  0
    0.0636    1.6571   -0.3901 C   0  0  0  0  0
    1.8714    0.8974   -1.8014 C   0  0  0  0  0
   -3.0817    0.5993   -1.2221 C   0  0  0  0  0
   -0.2569    4.1119    0.0659 C   0  0  0  0  0
    0.3212   -0.7997   -0.7989 C   0  0  0  0  0
   -1.0792    1.3711    0.4348 N   0  0  0  0  0
    2.6025   -0.1450   -2.4358 N   0  0  0  0  0
    3.5667   -0.6655   -1.8268 O   0  0  0  0  0
    2.2607   -0.5119   -3.5846 O   0  0  0  0  0
   -3.5511    1.8314    1.0112 O   0  0  0  0  0
   -2.5004    3.1175   -0.8706 O   0  0  0  0  0
   -2.6278    1.8836   -0.1118 S   0  0  0  0  0
  1  2  1  0  0  0
  3  6  1  0  0  0
  4 10  1  0  0  0
  5 11  1  0  0  0
  7 12  1  0  0  0
  8 15  1  0  0  0
  9 16  1  0  0  0
 10 11  1  0  0  0
 13 14  1  0  0  0
 14 19  1  0  0  0
 15 20  1  0  0  0
 17 12  1  0  0  0
 18 13  1  0  0  0
 20 21  1  0  0  0
 25 16  1  0  0  0
 25 19  1  0  0  0
  1  4  2  0  0  0
  2  5  2  0  0  0
  3  9  2  0  0  0
  6 10  2  0  0  0
  7  8  2  0  0  0
 11 16  2  0  0  0
 12 14  2  0  0  0
 13 15  2  0  0  0
 20 22  2  0  0  0
 25 23  2  0  0  0
 25 24  2  0  0  0
M  CHG  2  20   1  21  -1
M  END
> <rmsd>
0.381745607

$$$$
ZINC64982829


 26 27  0  0  0  0  0  0  0  0999 V2000
   -4.6486   -2.2796   -0.7413 C   0  0  0  0  0
   -3.4855   -2.0881    0.0043 C   0  0  0  0  0
   -5.5906   -1.2555   -0.8398 C   0  0  0  0  0
    0.8463    1.7281   -3.3549 C   0  0  0  0  0
   -0.0716    1.7692   -2.3055 C   0  0  0  0  0
   -3.2643   -0.8724    0.6515 C   0  0  0  0  0
    1.6366    0.9973   -0.7813 C   0  0  0  0  0
    2.1594    1.3216   -3.1176 C   0  0  0  0  0
   -5.3693   -0.0399   -0.1926 C   0  0  0  0  0
    0.3236    1.4038   -1.0186 C   0  0  0  0  0
    2.5545    0.9562   -1.8308 C   0  0  0  0  0
   -4.2062    0.1517    0.5531 C   0  0  0  0  0
   -1.9483    1.8144   -0.0137 C   0  0  0  0  0
    3.1182    1.2896   -4.2639 C   0  0  0  0  0
   -2.5591    3.0534    2.0960 C   0  0  0  0  0
   -7.5943    0.5941   -1.1893 C   0  0  0  0  0
   -5.7798    2.3237   -0.9616 C   0  0  0  0  0
   -7.0144    1.5235    1.0426 C   0  0  0  0  0
   -2.6139    1.7245    1.3572 C   0  0  0  0  0
   -6.4191    1.0772   -0.3121 C   0  0  0  0  0
   -0.6084    1.4449    0.0457 N   0  0  0  0  0
    3.8885    0.5402   -1.5659 N   0  0  0  0  0
    4.1738   -0.6768   -1.6616 O   0  0  0  0  0
   -2.5807    2.1622   -1.0069 O   0  0  0  0  0
    4.7395    1.4029   -1.2447 O   0  0  0  0  0
   -3.9752    1.3326    1.1921 O   0  0  0  0  0
  1  2  1  0  0  0
  3  9  1  0  0  0
  4  8  1  0  0  0
  5 10  1  0  0  0
  6 12  1  0  0  0
  7 11  1  0  0  0
 10 21  1  0  0  0
 11 22  1  0  0  0
 12 26  1  0  0  0
 13 21  1  0  0  0
 14  8  1  0  0  0
 15 19  1  0  0  0
 16 20  1  0  0  0
 17 20  1  0  0  0
 18 20  1  0  0  0
 19 13  1  0  0  0
 19 26  1  0  0  0
 20  9  1  0  0  0
 22 23  1  0  0  0
  1  3  2  0  0  0
  2  6  2  0  0  0
  4  5  2  0  0  0
  7 10  2  0  0  0
  8 11  2  0  0  0
  9 12  2  0  0  0
 13 24  2  0  0  0
 22 25  2  0  0  0
M  CHG  2  22   1  23  -1
M  END
> <rmsd>
0.684982479

$$$$
ZINC02874482


 23 24  0  0  0  0  0  0  0  0999 V2000
    0.7321    2.4825   -2.6918 C   0  0  0  0  0
   -0.1717    2.4768   -1.6294 C   0  0  0  0  0
    1.5719    1.3882   -2.8991 C   0  0  0  0  0
   -3.7418   -2.5301    0.6094 C   0  0  0  0  0
   -3.5095   -1.1675    0.7958 C   0  0  0  0  0
   -3.0138   -0.9302   -1.5569 C   0  0  0  0  0
    0.6040    0.2823   -0.9815 C   0  0  0  0  0
   -0.2357    1.3766   -0.7742 C   0  0  0  0  0
    1.5078    0.2881   -2.0440 C   0  0  0  0  0
   -3.6100   -3.0930   -0.6600 C   0  0  0  0  0
   -3.1456   -0.3676   -0.2874 C   0  0  0  0  0
   -3.2461   -2.2930   -1.7432 C   0  0  0  0  0
    0.5307   -0.8964   -0.0600 C   0  0  0  0  0
   -5.1790   -4.8203   -1.1190 C   0  0  0  0  0
   -1.1703    1.3922    0.3085 N   0  0  0  0  0
    2.3752   -0.8152   -2.2760 N   0  0  0  0  0
    3.5022   -0.8255   -1.7272 O   0  0  0  0  0
    1.9864   -1.7446   -3.0221 O   0  0  0  0  0
   -3.5946    1.7553    1.1332 O   0  0  0  0  0
   -3.1052    2.0302   -1.3132 O   0  0  0  0  0
   -3.8430   -4.4272   -0.8126 O   0  0  0  0  0
   -2.8535    1.3620   -0.0508 S   0  0  0  0  0
   -3.0756   -2.9624   -3.3240 Cl  0  0  0  0  0
  1  2  1  0  0  0
  3  9  1  0  0  0
  4 10  1  0  0  0
  5 11  1  0  0  0
  6 12  1  0  0  0
  7  8  1  0  0  0
  8 15  1  0  0  0
  9 16  1  0  0  0
 10 21  1  0  0  0
 12 23  1  0  0  0
 13  7  1  0  0  0
 14 21  1  0  0  0
 16 17  1  0  0  0
 22 11  1  0  0  0
 22 15  1  0  0  0
  1  3  2  0  0  0
  2  8  2  0  0  0
  4  5  2  0  0  0
  6 11  2  0  0  0
  7  9  2  0  0  0
 10 12  2  0  0  0
 16 18  2  0  0  0
 22 19  2  0  0  0
 22 20  2  0  0  0
M  CHG  2  16   1  17  -1
M  END
> <rmsd>
0.391239405

$$$$
ZINC02874482


 23 24  0  0  0  0  0  0  0  0999 V2000
    0.7318    2.4829   -2.6913 C   0  0  0  0  0
   -0.1720    2.4772   -1.6290 C   0  0  0  0  0
    1.5713    1.3884   -2.8989 C   0  0  0  0  0
   -3.2410   -2.2920   -1.7440 C   0  0  0  0  0
   -3.0127   -0.9287   -1.5572 C   0  0  0  0  0
   -3.5088   -1.1680    0.7952 C   0  0  0  0  0
    0.6031    0.2823   -0.9815 C   0  0  0  0  0
   -0.2364    1.3769   -0.7740 C   0  0  0  0  0
    1.5070    0.2882   -2.0440 C   0  0  0  0  0
   -3.6032   -3.0933   -0.6612 C   0  0  0  0  0
   -3.1467   -0.3667   -0.2876 C   0  0  0  0  0
   -3.7371   -2.5313    0.6084 C   0  0  0  0  0
    0.5295   -0.8965   -0.0603 C   0  0  0  0  0
   -5.1491   -4.8157   -1.2083 C   0  0  0  0  0
   -1.1709    1.3925    0.3087 N   0  0  0  0  0
    2.3740   -0.8153   -2.2761 N   0  0  0  0  0
    3.5010   -0.8260   -1.7273 O   0  0  0  0  0
    1.9851   -1.7444   -3.0224 O   0  0  0  0  0
   -3.5951    1.7560    1.1333 O   0  0  0  0  0
   -3.1056    2.0312   -1.3129 O   0  0  0  0  0
   -3.8202   -4.4221   -0.8732 O   0  0  0  0  0
   -2.8542    1.3627   -0.0507 S   0  0  0  0  0
   -4.1842   -3.4985    1.9651 Cl  0  0  0  0  0
  1  2  1  0  0  0
  3  9  1  0  0  0
  4 10  1  0  0  0
  5 11  1  0  0  0
  6 12  1  0  0  0
  7  8  1  0  0  0
  8 15  1  0  0  0
  9 16  1  0  0  0
 10 21  1  0  0  0
 12 23  1  0  0  0
 13  7  1  0  0  0
 14 21  1  0  0  0
 16 17  1  0  0  0
 22 11  1  0  0  0
 22 15  1  0  0  0
  1  3  2  0  0  0
  2  8  2  0  0  0
  4  5  2  0  0  0
  6 11  2  0  0  0
  7  9  2  0  0  0
 10 12  2  0  0  0
 16 18  2  0  0  0
 22 19  2  0  0  0
 22 20  2  0  0  0
M  CHG  2  16   1  17  -1
M  END
> <rmsd>
0.392397016

$$$$
ZINC03196983


 20 21  0  0  0  0  0  0  0  0999 V2000
    1.6940    2.6026   -1.3793 C   0  0  0  0  0
    0.5422    2.6354   -0.5933 C   0  0  0  0  0
    2.3124    1.3842   -1.6600 C   0  0  0  0  0
   -3.4820   -1.1459    0.7680 C   0  0  0  0  0
   -2.4073   -1.0228   -1.3923 C   0  0  0  0  0
   -3.6173   -2.5265    0.6220 C   0  0  0  0  0
   -2.5425   -2.4033   -1.5383 C   0  0  0  0  0
    0.6272    0.2314   -0.3685 C   0  0  0  0  0
    0.0088    1.4498   -0.0878 C   0  0  0  0  0
    1.7790    0.1987   -1.1546 C   0  0  0  0  0
   -2.8771   -0.3940   -0.2392 C   0  0  0  0  0
   -3.1475   -3.1552   -0.5311 C   0  0  0  0  0
   -1.1699    1.4837    0.7170 N   0  0  0  0  0
    2.4083   -1.0413   -1.4415 N   0  0  0  0  0
    3.4431   -1.0482   -2.1515 O   0  0  0  0  0
    1.9131   -2.0967   -0.9771 O   0  0  0  0  0
   -3.7361    1.7854    0.8735 O   0  0  0  0  0
   -2.6442    1.9394   -1.3811 O   0  0  0  0  0
   -2.7054    1.3578   -0.0539 S   0  0  0  0  0
   -3.3315   -5.0256   -0.7293 Br  0  0  0  0  0
  1  2  1  0  0  0
  3 10  1  0  0  0
  4 11  1  0  0  0
  5  7  1  0  0  0
  6 12  1  0  0  0
  8  9  1  0  0  0
  9 13  1  0  0  0
 10 14  1  0  0  0
 12 20  1  0  0  0
 14 15  1  0  0  0
 19 11  1  0  0  0
 19 13  1  0  0  0
  1  3  2  0  0  0
  2  9  2  0  0  0
  4  6  2  0  0  0
  5 11  2  0  0  0
  7 12  2  0  0  0
  8 10  2  0  0  0
 14 16  2  0  0  0
 19 17  2  0  0  0
 19 18  2  0  0  0
M  CHG  2  14   1  15  -1
M  END
> <rmsd>
0.550849974

$$$$
ZINC16101114


 20 21  0  0  0  0  0  0  0  0999 V2000
   -2.9281   -2.3215   -1.6801 C   0  0  0  0  0
   -3.1262   -3.1580   -0.5817 C   0  0  0  0  0
    1.6780    2.5954   -1.4110 C   0  0  0  0  0
    0.5301    2.6334   -0.6195 C   0  0  0  0  0
    2.2996    1.3760   -1.6800 C   0  0  0  0  0
   -2.8027   -0.9447   -1.4944 C   0  0  0  0  0
   -3.1990   -2.6178    0.7023 C   0  0  0  0  0
    0.6255    0.2327   -0.3657 C   0  0  0  0  0
    0.0039    1.4521   -0.0967 C   0  0  0  0  0
    1.7734    0.1947   -1.1574 C   0  0  0  0  0
   -2.8756   -0.4044   -0.2106 C   0  0  0  0  0
   -3.0737   -1.2411    0.8879 C   0  0  0  0  0
   -1.1708    1.4914    0.7137 N   0  0  0  0  0
    2.4060   -1.0463   -1.4324 N   0  0  0  0  0
    3.4371   -1.0580   -2.1476 O   0  0  0  0  0
    1.9173   -2.0978   -0.9525 O   0  0  0  0  0
   -3.7373    1.7851    0.8799 O   0  0  0  0  0
   -2.6576    1.9157   -1.3821 O   0  0  0  0  0
   -2.7097    1.3502   -0.0476 S   0  0  0  0  0
   -3.1846   -0.5726    2.6612 Br  0  0  0  0  0
  1  2  1  0  0  0
  3  5  1  0  0  0
  4  9  1  0  0  0
  6 11  1  0  0  0
  7 12  1  0  0  0
  8 10  1  0  0  0
  9 13  1  0  0  0
 10 14  1  0  0  0
 12 20  1  0  0  0
 14 15  1  0  0  0
 19 11  1  0  0  0
 19 13  1  0  0  0
  1  6  2  0  0  0
  2  7  2  0  0  0
  3  4  2  0  0  0
  5 10  2  0  0  0
  8  9  2  0  0  0
 11 12  2  0  0  0
 14 16  2  0  0  0
 19 17  2  0  0  0
 19 18  2  0  0  0
M  CHG  2  14   1  15  -1
M  END
> <rmsd>
0.559086442

$$$$
ZINC06315821


 20 21  0  0  0  0  0  0  0  0999 V2000
    1.6940    2.6027   -1.3803 C   0  0  0  0  0
   -3.6186   -2.5260    0.6232 C   0  0  0  0  0
    0.5422    2.6355   -0.5942 C   0  0  0  0  0
    2.3126    1.3843   -1.6607 C   0  0  0  0  0
   -3.4810   -1.1457    0.7691 C   0  0  0  0  0
   -3.1514   -3.1555   -0.5306 C   0  0  0  0  0
    0.6278    0.2315   -0.3687 C   0  0  0  0  0
   -2.4091   -1.0240   -1.3927 C   0  0  0  0  0
    0.0091    1.4499   -0.0883 C   0  0  0  0  0
    1.7795    0.1988   -1.1549 C   0  0  0  0  0
   -2.8763   -0.3946   -0.2389 C   0  0  0  0  0
   -2.5465   -2.4044   -1.5386 C   0  0  0  0  0
   -1.1695    1.4838    0.7166 N   0  0  0  0  0
    2.4091   -1.0411   -1.4415 N   0  0  0  0  0
    3.4438   -1.0480   -2.1516 O   0  0  0  0  0
    1.9142   -2.0964   -0.9767 O   0  0  0  0  0
   -3.7358    1.7848    0.8733 O   0  0  0  0  0
   -2.6441    1.9385   -1.3814 O   0  0  0  0  0
   -2.7050    1.3573   -0.0541 S   0  0  0  0  0
   -1.9112   -3.2578   -3.1008 Br  0  0  0  0  0
  1  3  1  0  0  0
  2  6  1  0  0  0
  4 10  1  0  0  0
  5 11  1  0  0  0
  7  9  1  0  0  0
  8 12  1  0  0  0
  9 13  1  0  0  0
 10 14  1  0  0  0
 12 20  1  0  0  0
 14 15  1  0  0  0
 19 11  1  0  0  0
 19 13  1  0  0  0
  1  4  2  0  0  0
  2  5  2  0  0  0
  3  9  2  0  0  0
  6 12  2  0  0  0
  7 10  2  0  0  0
  8 11  2  0  0  0
 14 16  2  0  0  0
 19 17  2  0  0  0
 19 18  2  0  0  0
M  CHG  2  14   1  15  -1
M  END
> <rmsd>
0.549738526

$$$$
ZINC65844508


 24 25  0  0  0  0  0  0  0  0999 V2000
    1.0388    2.6452   -2.3433 C   0  0  0  0  0
    1.9483    1.5931   -2.4514 C   0  0  0  0  0
   -2.7719   -2.3198   -1.7571 C   0  0  0  0  0
   -3.4978   -2.5680    0.5339 C   0  0  0  0  0
    0.0314    2.6000   -1.3796 C   0  0  0  0  0
   -2.6296   -0.9458   -1.5632 C   0  0  0  0  0
   -3.3554   -1.1941    0.7278 C   0  0  0  0  0
    1.8503    0.4959   -1.5958 C   0  0  0  0  0
   -3.2060   -3.1308   -0.7085 C   0  0  0  0  0
    0.8429    0.4507   -0.6321 C   0  0  0  0  0
   -0.0666    1.5028   -0.5240 C   0  0  0  0  0
   -2.9213   -0.3829   -0.3207 C   0  0  0  0  0
    2.8226   -0.6042   -1.7316 C   0  0  0  0  0
    0.7383   -0.7271    0.2859 C   0  0  0  0  0
   -3.3604   -4.5995   -0.9161 C   0  0  0  0  0
   -1.1074    1.4771    0.4563 N   0  0  0  0  0
    3.9129   -0.5518   -1.0505 O   0  0  0  0  0
    2.5464   -1.5773   -2.5267 O   0  0  0  0  0
   -3.6193    1.7225    1.0230 O   0  0  0  0  0
   -2.8937    2.0080   -1.3626 O   0  0  0  0  0
   -3.0420   -5.0106   -2.1794 F   0  0  0  0  0
   -2.5780   -5.3540   -0.0888 F   0  0  0  0  0
   -4.6385   -5.0287   -0.7030 F   0  0  0  0  0
   -2.7413    1.3604   -0.0740 S   0  0  0  0  0
  1  2  1  0  0  0
  3  9  1  0  0  0
  4  7  1  0  0  0
  5 11  1  0  0  0
  6 12  1  0  0  0
  8 10  1  0  0  0
  8 13  1  0  0  0
 11 16  1  0  0  0
 13 17  1  0  0  0
 14 10  1  0  0  0
 15  9  1  0  0  0
 15 21  1  0  0  0
 15 22  1  0  0  0
 15 23  1  0  0  0
 24 12  1  0  0  0
 24 16  1  0  0  0
  1  5  2  0  0  0
  2  8  2  0  0  0
  3  6  2  0  0  0
  4  9  2  0  0  0
  7 12  2  0  0  0
 10 11  2  0  0  0
 13 18  2  0  0  0
 24 19  2  0  0  0
 24 20  2  0  0  0
M  CHG  1  17  -1
M  END
> <rmsd>
0.559863567

$$$$
ZINC65844508


 24 25  0  0  0  0  0  0  0  0999 V2000
    0.7103    2.5025   -2.6952 C   0  0  0  0  0
    1.5514    1.4103   -2.9082 C   0  0  0  0  0
   -3.2514   -2.2851   -1.7461 C   0  0  0  0  0
   -3.7410   -2.5291    0.6071 C   0  0  0  0  0
   -0.1901    2.4920   -1.6299 C   0  0  0  0  0
   -3.0232   -0.9220   -1.5574 C   0  0  0  0  0
   -3.5128   -1.1661    0.7960 C   0  0  0  0  0
    1.4921    0.3077   -2.0560 C   0  0  0  0  0
   -3.6102   -3.0886   -0.6638 C   0  0  0  0  0
    0.5917    0.2972   -0.9907 C   0  0  0  0  0
   -0.2494    1.3894   -0.7777 C   0  0  0  0  0
   -3.1540   -0.3625   -0.2863 C   0  0  0  0  0
    2.3903   -0.8350   -2.3037 C   0  0  0  0  0
    0.5285   -0.8864   -0.0763 C   0  0  0  0  0
   -3.8563   -4.5456   -0.8657 C   0  0  0  0  0
   -1.1803    1.3997    0.3078 N   0  0  0  0  0
    3.5480   -0.8430   -1.7424 O   0  0  0  0  0
    1.9847   -1.7835   -3.0727 O   0  0  0  0  0
   -3.6030    1.7555    1.1413 O   0  0  0  0  0
   -3.1220    2.0381   -1.3057 O   0  0  0  0  0
   -3.6941   -4.9544   -2.1590 F   0  0  0  0  0
   -3.0277   -5.3469   -0.1327 F   0  0  0  0  0
   -5.1238   -4.9170   -0.5209 F   0  0  0  0  0
   -2.8649    1.3670   -0.0461 S   0  0  0  0  0
  1  2  1  0  0  0
  3  9  1  0  0  0
  4  7  1  0  0  0
  5 11  1  0  0  0
  6 12  1  0  0  0
  8 10  1  0  0  0
  8 13  1  0  0  0
 11 16  1  0  0  0
 13 17  1  0  0  0
 14 10  1  0  0  0
 15  9  1  0  0  0
 15 21  1  0  0  0
 15 22  1  0  0  0
 15 23  1  0  0  0
 24 12  1  0  0  0
 24 16  1  0  0  0
  1  5  2  0  0  0
  2  8  2  0  0  0
  3  6  2  0  0  0
  4  9  2  0  0  0
  7 12  2  0  0  0
 10 11  2  0  0  0
 13 18  2  0  0  0
 24 19  2  0  0  0
 24 20  2  0  0  0
M  CHG  1  17  -1
M  END
> <rmsd>
0.387352675

$$$$
ZINC00763019


 27 30  0  0  0  0  0  0  0  0999 V2000
   -3.3720   -3.1050   -0.5218 C   0  0  0  0  0
   -3.9651    4.4589   -3.2492 C   0  0  0  0  0
   -4.8406    4.6346   -2.1601 C   0  0  0  0  0
   -3.6330   -2.2848   -1.6195 C   0  0  0  0  0
   -2.7503   -2.5782    0.6103 C   0  0  0  0  0
    2.2874    2.4734   -0.4319 C   0  0  0  0  0
   -2.9628    3.4858   -3.2147 C   0  0  0  0  0
   -4.7308    3.8402   -1.0155 C   0  0  0  0  0
   -3.2721   -0.9379   -1.5851 C   0  0  0  0  0
   -2.3894   -1.2313    0.6447 C   0  0  0  0  0
    0.9714    2.4846    0.0305 C   0  0  0  0  0
    2.8272    1.3058   -0.9712 C   0  0  0  0  0
    0.7351    0.1605   -0.5857 C   0  0  0  0  0
   -2.8707    2.7083   -2.0768 C   0  0  0  0  0
   -3.7368    2.8813   -1.0000 C   0  0  0  0  0
   -2.6504   -0.4111   -0.4530 C   0  0  0  0  0
    0.1954    1.3281   -0.0464 C   0  0  0  0  0
    2.0511    0.1493   -1.0481 C   0  0  0  0  0
   -1.9156    1.6344   -1.7857 C   0  0  0  0  0
   -3.4045    1.9353    0.0694 C   0  0  0  0  0
   -2.2575    1.0545   -0.4157 C   0  0  0  0  0
   -1.1135    1.3393    0.4136 N   0  0  0  0  0
    2.6025   -1.0394   -1.5958 N   0  0  0  0  0
    3.7888   -1.0270   -2.0042 O   0  0  0  0  0
   -1.0004    1.3113   -2.5201 O   0  0  0  0  0
   -3.9463    1.9119    1.1589 O   0  0  0  0  0
    1.8883   -2.0692   -1.6559 O   0  0  0  0  0
  1  4  1  0  0  0
  2  3  1  0  0  0
  5 10  1  0  0  0
  6 12  1  0  0  0
  7 14  1  0  0  0
  8 15  1  0  0  0
  9 16  1  0  0  0
 11 17  1  0  0  0
 13 18  1  0  0  0
 14 19  1  0  0  0
 15 20  1  0  0  0
 17 22  1  0  0  0
 18 23  1  0  0  0
 21 16  1  0  0  0
 21 19  1  0  0  0
 21 20  1  0  0  0
 21 22  1  0  0  0
 23 24  1  0  0  0
  1  5  2  0  0  0
  2  7  2  0  0  0
  3  8  2  0  0  0
  4  9  2  0  0  0
  6 11  2  0  0  0
 10 16  2  0  0  0
 12 18  2  0  0  0
 13 17  2  0  0  0
 14 15  2  0  0  0
 19 25  2  0  0  0
 20 26  2  0  0  0
 23 27  2  0  0  0
M  CHG  2  23   1  24  -1
M  END
> <rmsd>
0.547440469

$$$$
ZINC00754853


 25 27  0  0  0  0  0  0  0  0999 V2000
    0.8403    2.4645   -2.6174 C   0  0  0  0  0
    1.8183    1.4704   -2.6479 C   0  0  0  0  0
   -2.9106   -2.3105   -1.7747 C   0  0  0  0  0
   -3.5505   -2.5641    0.5412 C   0  0  0  0  0
   -0.1282    2.4595   -1.6137 C   0  0  0  0  0
   -2.7436   -0.9397   -1.5784 C   0  0  0  0  0
   -3.3834   -1.1933    0.7375 C   0  0  0  0  0
    0.8590    0.4661   -0.6709 C   0  0  0  0  0
    1.8277    0.4712   -1.6747 C   0  0  0  0  0
   -3.3141   -3.1228   -0.7148 C   0  0  0  0  0
   -0.1190    1.4603   -0.6404 C   0  0  0  0  0
   -2.9799   -0.3811   -0.3224 C   0  0  0  0  0
    2.8598   -0.5778   -1.7075 C   0  0  0  0  0
   -4.1549   -7.3785   -0.1023 C   0  0  0  0  0
   -5.1245   -6.5564   -0.9458 C   0  0  0  0  0
   -2.7092   -6.9440   -0.3228 C   0  0  0  0  0
   -4.9534   -5.0581   -0.7024 C   0  0  0  0  0
   -2.5261   -5.4476   -0.0763 C   0  0  0  0  0
   -3.4977   -4.6101   -0.9281 C   0  0  0  0  0
   -1.1181    1.4549    0.3940 N   0  0  0  0  0
    2.8467   -1.4887   -0.7973 O   0  0  0  0  0
    3.7420   -0.5497   -2.6452 O   0  0  0  0  0
   -3.5949    1.7234    1.0628 O   0  0  0  0  0
   -2.9671    2.0164   -1.3495 O   0  0  0  0  0
   -2.7712    1.3347   -0.0759 S   0  0  0  0  0
  1  2  1  0  0  0
  3 10  1  0  0  0
  4  7  1  0  0  0
  5 11  1  0  0  0
  6 12  1  0  0  0
  8  9  1  0  0  0
  9 13  1  0  0  0
 11 20  1  0  0  0
 13 21  1  0  0  0
 14 15  1  0  0  0
 14 16  1  0  0  0
 15 17  1  0  0  0
 16 18  1  0  0  0
 17 19  1  0  0  0
 18 19  1  0  0  0
 19 10  1  0  0  0
 25 12  1  0  0  0
 25 20  1  0  0  0
  1  5  2  0  0  0
  2  9  2  0  0  0
  3  6  2  0  0  0
  4 10  2  0  0  0
  7 12  2  0  0  0
  8 11  2  0  0  0
 13 22  2  0  0  0
 25 23  2  0  0  0
 25 24  2  0  0  0
M  CHG  1  21  -1
M  END
> <rmsd>
0.520910621

$$$$
ZINC68182793


 25 27  0  0  0  0  0  0  0  0999 V2000
    1.5487    3.2725   -1.3754 C   0  0  0  0  0
   -3.7271   -2.3390    0.9792 C   0  0  0  0  0
   -3.4005   -1.0506    0.5813 C   0  0  0  0  0
    2.2586    2.2422   -1.9920 C   0  0  0  0  0
    0.4449    2.9774   -0.5752 C   0  0  0  0  0
   -3.4777   -0.0699   -3.4915 C   0  0  0  0  0
   -3.1243    0.9056   -2.5674 C   0  0  0  0  0
   -4.0660   -3.2445   -0.0057 C   0  0  0  0  0
   -3.4212   -0.7057   -0.7768 C   0  0  0  0  0
    1.8646    0.9168   -1.8085 C   0  0  0  0  0
    0.7608    0.6216   -1.0084 C   0  0  0  0  0
   -3.7808   -1.7014   -1.7093 C   0  0  0  0  0
    0.0510    1.6520   -0.3916 C   0  0  0  0  0
   -3.8013   -1.3582   -3.0584 C   0  0  0  0  0
   -3.0956    0.5900   -1.2121 C   0  0  0  0  0
    2.6303   -0.1539   -2.4730 C   0  0  0  0  0
    0.3385   -0.8010   -0.8118 C   0  0  0  0  0
   -4.0983   -2.9524   -1.3262 N   0  0  0  0  0
   -1.0902    1.3707    0.4370 N   0  0  0  0  0
    3.6255   -0.6791   -1.8491 O   0  0  0  0  0
    2.2762   -0.5247   -3.6530 O   0  0  0  0  0
   -3.5611    1.8345    1.0151 O   0  0  0  0  0
   -2.5135    3.1102   -0.8756 O   0  0  0  0  0
   -4.1382   -2.2802   -3.9733 F   0  0  0  0  0
   -2.6399    1.8801   -0.1101 S   0  0  0  0  0
  1  4  1  0  0  0
  2  8  1  0  0  0
  3  9  1  0  0  0
  5 13  1  0  0  0
  6 14  1  0  0  0
  7 15  1  0  0  0
  9 12  1  0  0  0
 10 11  1  0  0  0
 10 16  1  0  0  0
 12 18  1  0  0  0
 13 19  1  0  0  0
 14 24  1  0  0  0
 16 20  1  0  0  0
 17 11  1  0  0  0
 25 15  1  0  0  0
 25 19  1  0  0  0
  1  5  2  0  0  0
  2  3  2  0  0  0
  4 10  2  0  0  0
  6  7  2  0  0  0
  8 18  2  0  0  0
  9 15  2  0  0  0
 11 13  2  0  0  0
 12 14  2  0  0  0
 16 21  2  0  0  0
 25 22  2  0  0  0
 25 23  2  0  0  0
M  CHG  1  20  -1
M  END
> <rmsd>
0.376224726

$$$$
ZINC68182793


 25 27  0  0  0  0  0  0  0  0999 V2000
    1.8224    3.1647   -0.9880 C   0  0  0  0  0
   -3.7174   -2.3217    1.0315 C   0  0  0  0  0
   -3.3409   -1.0566    0.6039 C   0  0  0  0  0
    2.5968    2.1036   -1.4572 C   0  0  0  0  0
    0.6301    2.9116   -0.3097 C   0  0  0  0  0
   -2.9290   -0.3054   -3.4975 C   0  0  0  0  0
   -2.6844    0.7213   -2.5939 C   0  0  0  0  0
   -3.9401   -3.2818    0.0653 C   0  0  0  0  0
   -3.1985   -0.7882   -0.7641 C   0  0  0  0  0
    2.1787    0.7894   -1.2481 C   0  0  0  0  0
    0.9864    0.5363   -0.5699 C   0  0  0  0  0
   -3.4482   -1.8355   -1.6758 C   0  0  0  0  0
    0.2121    1.5974   -0.1006 C   0  0  0  0  0
   -3.3067   -1.5683   -3.0347 C   0  0  0  0  0
   -2.8185    0.4821   -1.2293 C   0  0  0  0  0
    3.0140   -0.3146   -1.7558 C   0  0  0  0  0
    0.5383   -0.8744   -0.3458 C   0  0  0  0  0
   -3.8138   -3.0641   -1.2639 N   0  0  0  0  0
   -1.0207    1.3596    0.6007 N   0  0  0  0  0
    3.9259   -0.8012   -0.9895 O   0  0  0  0  0
    2.8016   -0.7518   -2.9470 O   0  0  0  0  0
   -3.5411    1.8478    0.8536 O   0  0  0  0  0
   -2.2710    3.0188   -0.9672 O   0  0  0  0  0
   -3.5357   -2.5411   -3.9303 F   0  0  0  0  0
   -2.4923    1.8331   -0.1547 S   0  0  0  0  0
  1  4  1  0  0  0
  2  8  1  0  0  0
  3  9  1  0  0  0
  5 13  1  0  0  0
  6 14  1  0  0  0
  7 15  1  0  0  0
  9 12  1  0  0  0
 10 11  1  0  0  0
 10 16  1  0  0  0
 12 18  1  0  0  0
 13 19  1  0  0  0
 14 24  1  0  0  0
 16 20  1  0  0  0
 17 11  1  0  0  0
 25 15  1  0  0  0
 25 19  1  0  0  0
  1  5  2  0  0  0
  2  3  2  0  0  0
  4 10  2  0  0  0
  6  7  2  0  0  0
  8 18  2  0  0  0
  9 15  2  0  0  0
 11 13  2  0  0  0
 12 14  2  0  0  0
 16 21  2  0  0  0
 25 22  2  0  0  0
 25 23  2  0  0  0
M  CHG  1  20  -1
M  END
> <rmsd>
0.444057763

$$$$
ZINC68182793


 25 27  0  0  0  0  0  0  0  0999 V2000
    0.6719    2.4464   -2.7481 C   0  0  0  0  0
   -2.7786   -1.8162    3.1505 C   0  0  0  0  0
   -2.8199   -0.8864    2.1216 C   0  0  0  0  0
    1.5192    1.3554   -2.9417 C   0  0  0  0  0
   -0.2178    2.4564   -1.6739 C   0  0  0  0  0
   -3.6528   -2.1661   -1.7802 C   0  0  0  0  0
   -3.4234   -0.8160   -1.5457 C   0  0  0  0  0
   -3.0184   -3.1365    2.8274 C   0  0  0  0  0
   -3.0970   -1.2973    0.8108 C   0  0  0  0  0
    1.4766    0.2745   -2.0612 C   0  0  0  0  0
    0.5869    0.2845   -0.9870 C   0  0  0  0  0
   -3.3286   -2.6697    0.5801 C   0  0  0  0  0
   -0.2603    1.3755   -0.7933 C   0  0  0  0  0
   -3.6040   -3.0773   -0.7223 C   0  0  0  0  0
   -3.1459   -0.3806   -0.2531 C   0  0  0  0  0
    2.3811   -0.8676   -2.2890 C   0  0  0  0  0
    0.5417   -0.8759   -0.0423 C   0  0  0  0  0
   -3.2893   -3.5743    1.5765 N   0  0  0  0  0
   -1.1857    1.4068    0.3071 N   0  0  0  0  0
    3.5444   -0.8528   -1.7393 O   0  0  0  0  0
    1.9751   -1.8383   -3.0295 O   0  0  0  0  0
   -3.6001    1.7552    1.1461 O   0  0  0  0  0
   -3.1372    2.0048   -1.3080 O   0  0  0  0  0
   -3.8289   -4.3752   -0.9785 F   0  0  0  0  0
   -2.8692    1.3414   -0.0419 S   0  0  0  0  0
  1  4  1  0  0  0
  2  8  1  0  0  0
  3  9  1  0  0  0
  5 13  1  0  0  0
  6 14  1  0  0  0
  7 15  1  0  0  0
  9 12  1  0  0  0
 10 11  1  0  0  0
 10 16  1  0  0  0
 12 18  1  0  0  0
 13 19  1  0  0  0
 14 24  1  0  0  0
 16 20  1  0  0  0
 17 11  1  0  0  0
 25 15  1  0  0  0
 25 19  1  0  0  0
  1  5  2  0  0  0
  2  3  2  0  0  0
  4 10  2  0  0  0
  6  7  2  0  0  0
  8 18  2  0  0  0
  9 15  2  0  0  0
 11 13  2  0  0  0
 12 14  2  0  0  0
 16 21  2  0  0  0
 25 22  2  0  0  0
 25 23  2  0  0  0
M  CHG  1  20  -1
M  END
> <rmsd>
0.395659745

$$$$
ZINC68182793


 25 27  0  0  0  0  0  0  0  0999 V2000
    1.0007    2.6021   -2.4025 C   0  0  0  0  0
   -2.8352   -1.7944    3.1495 C   0  0  0  0  0
   -2.8142   -0.8737    2.1118 C   0  0  0  0  0
    1.9165    1.5540   -2.4945 C   0  0  0  0  0
    0.0038    2.5737   -1.4273 C   0  0  0  0  0
   -3.1688   -2.2161   -1.8414 C   0  0  0  0  0
   -3.0322   -0.8548   -1.5990 C   0  0  0  0  0
   -2.9744   -3.1269    2.8177 C   0  0  0  0  0
   -2.9315   -1.3056    0.7838 C   0  0  0  0  0
    1.8351    0.4774   -1.6114 C   0  0  0  0  0
    0.8382    0.4488   -0.6363 C   0  0  0  0  0
   -3.0697   -2.6891    0.5452 C   0  0  0  0  0
   -0.0775    1.4970   -0.5442 C   0  0  0  0  0
   -3.1864   -3.1176   -0.7742 C   0  0  0  0  0
   -2.9137   -0.3986   -0.2893 C   0  0  0  0  0
    2.8137   -0.6192   -1.7308 C   0  0  0  0  0
    0.7514   -0.7069    0.3112 C   0  0  0  0  0
   -3.0906   -3.5849    1.5502 N   0  0  0  0  0
   -1.1137    1.4881    0.4530 N   0  0  0  0  0
    3.9107   -0.5428   -1.0627 O   0  0  0  0  0
    2.5361   -1.6132   -2.4990 O   0  0  0  0  0
   -3.6171    1.7197    1.0312 O   0  0  0  0  0
   -2.9120    1.9781   -1.3637 O   0  0  0  0  0
   -3.3189   -4.4266   -1.0383 F   0  0  0  0  0
   -2.7460    1.3363   -0.0693 S   0  0  0  0  0
  1  4  1  0  0  0
  2  8  1  0  0  0
  3  9  1  0  0  0
  5 13  1  0  0  0
  6 14  1  0  0  0
  7 15  1  0  0  0
  9 12  1  0  0  0
 10 11  1  0  0  0
 10 16  1  0  0  0
 12 18  1  0  0  0
 13 19  1  0  0  0
 14 24  1  0  0  0
 16 20  1  0  0  0
 17 11  1  0  0  0
 25 15  1  0  0  0
 25 19  1  0  0  0
  1  5  2  0  0  0
  2  3  2  0  0  0
  4 10  2  0  0  0
  6  7  2  0  0  0
  8 18  2  0  0  0
  9 15  2  0  0  0
 11 13  2  0  0  0
 12 14  2  0  0  0
 16 21  2  0  0  0
 25 22  2  0  0  0
 25 23  2  0  0  0
M  CHG  1  20  -1
M  END
> <rmsd>
0.572716296

$$$$
ZINC68182793


 25 27  0  0  0  0  0  0  0  0999 V2000
    0.3968    1.9413   -3.1216 C   0  0  0  0  0
   -3.5429   -2.4019    0.7778 C   0  0  0  0  0
   -3.3216   -1.0683    0.4657 C   0  0  0  0  0
    1.3418    0.9156   -3.1418 C   0  0  0  0  0
   -0.4188    2.1163   -2.0035 C   0  0  0  0  0
   -4.0182    0.2769   -3.4408 C   0  0  0  0  0
   -3.5692    1.1794   -2.4847 C   0  0  0  0  0
   -3.9888   -3.2285   -0.2337 C   0  0  0  0  0
   -3.5495   -0.6017   -0.8360 C   0  0  0  0  0
    1.4713    0.0649   -2.0440 C   0  0  0  0  0
    0.6557    0.2399   -0.9259 C   0  0  0  0  0
   -4.0051   -1.5238   -1.8016 C   0  0  0  0  0
   -0.2893    1.2657   -0.9057 C   0  0  0  0  0
   -4.2315   -1.0596   -3.0945 C   0  0  0  0  0
   -3.3347    0.7426   -1.1840 C   0  0  0  0  0
    2.4763   -1.0129   -2.0909 C   0  0  0  0  0
    0.7952   -0.6734    0.2520 C   0  0  0  0  0
   -4.2210   -2.8184   -1.5017 N   0  0  0  0  0
   -1.1408    1.4641    0.2361 N   0  0  0  0  0
    3.6639   -0.7685   -1.6603 O   0  0  0  0  0
    2.1302   -2.1596   -2.5610 O   0  0  0  0  0
   -3.5172    1.7539    1.1971 O   0  0  0  0  0
   -2.7973    3.2463   -0.6881 O   0  0  0  0  0
   -4.6647   -1.9090   -4.0387 F   0  0  0  0  0
   -2.7697    1.9466   -0.0361 S   0  0  0  0  0
  1  4  1  0  0  0
  2  8  1  0  0  0
  3  9  1  0  0  0
  5 13  1  0  0  0
  6 14  1  0  0  0
  7 15  1  0  0  0
  9 12  1  0  0  0
 10 11  1  0  0  0
 10 16  1  0  0  0
 12 18  1  0  0  0
 13 19  1  0  0  0
 14 24  1  0  0  0
 16 20  1  0  0  0
 17 11  1  0  0  0
 25 15  1  0  0  0
 25 19  1  0  0  0
  1  5  2  0  0  0
  2  3  2  0  0  0
  4 10  2  0  0  0
  6  7  2  0  0  0
  8 18  2  0  0  0
  9 15  2  0  0  0
 11 13  2  0  0  0
 12 14  2  0  0  0
 16 21  2  0  0  0
 25 22  2  0  0  0
 25 23  2  0  0  0
M  CHG  1  20  -1
M  END
> <rmsd>
0.429976135

$$$$
ZINC68182793


 25 27  0  0  0  0  0  0  0  0999 V2000
    0.6942    2.1961   -2.8607 C   0  0  0  0  0
   -3.2420   -2.4382    0.6917 C   0  0  0  0  0
   -3.0887   -1.0901    0.4016 C   0  0  0  0  0
    1.7065    1.2382   -2.8049 C   0  0  0  0  0
   -0.2206    2.3059   -1.8133 C   0  0  0  0  0
   -3.5536    0.2340   -3.5463 C   0  0  0  0  0
   -3.2483    1.1579   -2.5546 C   0  0  0  0  0
   -3.5450   -3.2857   -0.3547 C   0  0  0  0  0
   -3.2407   -0.6303   -0.9134 C   0  0  0  0  0
    1.8040    0.3899   -1.7019 C   0  0  0  0  0
    0.8892    0.4997   -0.6546 C   0  0  0  0  0
   -3.5505   -1.5741   -1.9152 C   0  0  0  0  0
   -0.1230    1.4578   -0.7103 C   0  0  0  0  0
   -3.7015   -1.1167   -3.2214 C   0  0  0  0  0
   -3.0918    0.7283   -1.2399 C   0  0  0  0  0
    2.8818   -0.6157   -1.6679 C   0  0  0  0  0
    0.9944   -0.4109    0.5291 C   0  0  0  0  0
   -3.7000   -2.8828   -1.6367 N   0  0  0  0  0
   -1.0772    1.5882    0.3578 N   0  0  0  0  0
    4.0102   -0.2934   -1.1403 O   0  0  0  0  0
    2.6557   -1.7798   -2.1672 O   0  0  0  0  0
   -3.5388    1.7062    1.1201 O   0  0  0  0  0
   -2.7716    3.2591   -0.6963 O   0  0  0  0  0
   -3.9958   -1.9865   -4.1999 F   0  0  0  0  0
   -2.7077    1.9594   -0.0469 S   0  0  0  0  0
  1  4  1  0  0  0
  2  8  1  0  0  0
  3  9  1  0  0  0
  5 13  1  0  0  0
  6 14  1  0  0  0
  7 15  1  0  0  0
  9 12  1  0  0  0
 10 11  1  0  0  0
 10 16  1  0  0  0
 12 18  1  0  0  0
 13 19  1  0  0  0
 14 24  1  0  0  0
 16 20  1  0  0  0
 17 11  1  0  0  0
 25 15  1  0  0  0
 25 19  1  0  0  0
  1  5  2  0  0  0
  2  3  2  0  0  0
  4 10  2  0  0  0
  6  7  2  0  0  0
  8 18  2  0  0  0
  9 15  2  0  0  0
 11 13  2  0  0  0
 12 14  2  0  0  0
 16 21  2  0  0  0
 25 22  2  0  0  0
 25 23  2  0  0  0
M  CHG  1  20  -1
M  END
> <rmsd>
0.524176955

$$$$
ZINC78807563


 25 27  0  0  0  0  0  0  0  0999 V2000
   -3.8067   -2.2923    1.0634 C   0  0  0  0  0
   -3.4479   -1.0185    0.6468 C   0  0  0  0  0
    1.2434    1.4186   -2.1474 C   0  0  0  0  0
    0.1622    1.7580   -1.3342 C   0  0  0  0  0
   -2.9933   -0.2402   -3.4451 C   0  0  0  0  0
   -2.7805    0.7866   -2.5336 C   0  0  0  0  0
    1.8942   -0.2907   -0.5688 C   0  0  0  0  0
   -3.9979   -3.2518    0.0899 C   0  0  0  0  0
   -3.2916   -0.7410   -0.7180 C   0  0  0  0  0
    2.1094    0.3942   -1.7647 C   0  0  0  0  0
    0.8130    0.0487    0.2444 C   0  0  0  0  0
   -3.5091   -1.7883   -1.6376 C   0  0  0  0  0
   -0.0531    1.0731   -0.1382 C   0  0  0  0  0
   -3.3538   -1.5122   -2.9933 C   0  0  0  0  0
   -2.9290    0.5384   -1.1720 C   0  0  0  0  0
    3.2507    0.0370   -2.6226 C   0  0  0  0  0
    0.6050   -0.7000    1.5205 C   0  0  0  0  0
   -3.8574   -3.0255   -1.2363 N   0  0  0  0  0
   -1.1727    1.4390    0.6868 N   0  0  0  0  0
    4.0356   -0.9123   -2.2465 O   0  0  0  0  0
    3.4274    0.6857   -3.7212 O   0  0  0  0  0
   -3.7047    1.8806    0.9071 O   0  0  0  0  0
   -2.4310    3.0832   -0.8903 O   0  0  0  0  0
   -3.5529   -2.4845   -3.8963 F   0  0  0  0  0
   -2.6421    1.8894   -0.0867 S   0  0  0  0  0
  1  8  1  0  0  0
  2  9  1  0  0  0
  3 10  1  0  0  0
  4 13  1  0  0  0
  5 14  1  0  0  0
  6 15  1  0  0  0
  7 11  1  0  0  0
  9 12  1  0  0  0
 10 16  1  0  0  0
 12 18  1  0  0  0
 13 19  1  0  0  0
 14 24  1  0  0  0
 16 20  1  0  0  0
 17 11  1  0  0  0
 25 15  1  0  0  0
 25 19  1  0  0  0
  1  2  2  0  0  0
  3  4  2  0  0  0
  5  6  2  0  0  0
  7 10  2  0  0  0
  8 18  2  0  0  0
  9 15  2  0  0  0
 11 13  2  0  0  0
 12 14  2  0  0  0
 16 21  2  0  0  0
 25 22  2  0  0  0
 25 23  2  0  0  0
M  CHG  1  20  -1
M  END
> <rmsd>
0.452887744

$$$$
ZINC89269219


 25 28  0  0  0  0  0  0  0  0999 V2000
   -4.4972   -0.7000   -0.6776 C   0  0  0  0  0
   -2.8049   -1.9025    0.5581 C   0  0  0  0  0
   -4.9648   -1.9025   -1.2076 C   0  0  0  0  0
   -3.2724   -3.1051    0.0281 C   0  0  0  0  0
    4.3014    1.6972   -1.8693 C   0  0  0  0  0
   -3.4173   -0.6999    0.2053 C   0  0  0  0  0
   -4.3524   -3.1050   -0.8548 C   0  0  0  0  0
    3.2785    0.8481   -1.5215 C   0  0  0  0  0
    2.8555    2.9242   -0.8862 C   0  0  0  0  0
    2.0605    3.9190   -0.2808 C   0  0  0  0  0
    0.8802    3.5839    0.2504 C   0  0  0  0  0
    0.4392    2.1487    0.1842 C   0  0  0  0  0
   -2.5750    2.3218   -0.8381 C   0  0  0  0  0
   -3.6323    2.7413    0.1588 C   0  0  0  0  0
   -2.9103    0.6056    0.7824 C   0  0  0  0  0
   -1.8206    1.2472   -0.0835 C   0  0  0  0  0
    4.0337    2.9819   -1.4730 N   0  0  0  0  0
    1.1696    1.2128   -0.3759 N   0  0  0  0  0
    2.3534    1.6384   -0.8913 N   0  0  0  0  0
   -0.7790    1.8246    0.7369 N   0  0  0  0  0
    3.1168   -0.5283   -1.7179 N   0  0  0  0  0
    4.0187   -1.1887   -2.3096 O   0  0  0  0  0
    2.0700   -1.1036   -1.3025 O   0  0  0  0  0
   -3.9827    1.5636    0.8946 O   0  0  0  0  0
   -4.9293   -4.5884   -1.5087 Cl  0  0  0  0  0
  1  3  1  0  0  0
  2  6  1  0  0  0
  4  7  1  0  0  0
  5 17  1  0  0  0
  7 25  1  0  0  0
  8 19  1  0  0  0
  8 21  1  0  0  0
  9 10  1  0  0  0
  9 19  1  0  0  0
 11 12  1  0  0  0
 12 20  1  0  0  0
 13 14  1  0  0  0
 13 16  1  0  0  0
 14 24  1  0  0  0
 15  6  1  0  0  0
 15 16  1  0  0  0
 15 24  1  0  0  0
 16 20  1  0  0  0
 19 18  1  0  0  0
 21 22  1  0  0  0
  1  6  2  0  0  0
  2  4  2  0  0  0
  3  7  2  0  0  0
  5  8  2  0  0  0
  9 17  2  0  0  0
 10 11  2  0  0  0
 12 18  2  0  0  0
 21 23  2  0  0  0
M  CHG  2  21   1  22  -1
M  END
> <rmsd>
0.437044978

$$$$
ZINC64472356


 25 27  0  0  0  0  0  0  0  0999 V2000
   -3.5707   -2.5595    0.5585 C   0  0  0  0  0
   -3.3306   -3.1262   -0.6932 C   0  0  0  0  0
   -3.3975   -1.1886    0.7483 C   0  0  0  0  0
    0.8680    0.4570   -0.6600 C   0  0  0  0  0
   -2.7440   -0.9508   -1.5654 C   0  0  0  0  0
   -0.0604    2.4527   -1.5610 C   0  0  0  0  0
    1.8376    0.4945   -1.6559 C   0  0  0  0  0
   -2.9172   -2.3219   -1.7552 C   0  0  0  0  0
   -0.1027    1.4510   -0.6047 C   0  0  0  0  0
   -2.9841   -0.3842   -0.3136 C   0  0  0  0  0
    1.7929    1.5389   -2.5653 C   0  0  0  0  0
    2.8647   -0.5596   -1.7124 C   0  0  0  0  0
    4.8069    2.0032   -4.7130 C   0  0  0  0  0
    3.8557    1.3056   -5.6642 C   0  0  0  0  0
    4.2187    1.6726   -3.3460 C   0  0  0  0  0
    2.4963    1.5477   -5.0181 C   0  0  0  0  0
   -2.6591   -2.9288   -3.0930 C   0  0  0  0  0
    0.8656    2.5225   -2.5434 N   0  0  0  0  0
    2.7715    1.5835   -3.5765 N   0  0  0  0  0
   -1.1094    1.4396    0.4039 N   0  0  0  0  0
    2.6288   -1.6167   -2.4082 O   0  0  0  0  0
    3.9634   -0.3884   -1.0636 O   0  0  0  0  0
   -3.6009    1.7328    1.0515 O   0  0  0  0  0
   -2.9448    2.0066   -1.3555 O   0  0  0  0  0
   -2.7643    1.3553   -0.0724 S   0  0  0  0  0
  1  3  1  0  0  0
  2  8  1  0  0  0
  4  9  1  0  0  0
  5 10  1  0  0  0
  6 18  1  0  0  0
  7 11  1  0  0  0
  7 12  1  0  0  0
  9 20  1  0  0  0
 11 19  1  0  0  0
 12 21  1  0  0  0
 13 14  1  0  0  0
 13 15  1  0  0  0
 14 16  1  0  0  0
 15 19  1  0  0  0
 16 19  1  0  0  0
 17  8  1  0  0  0
 25 10  1  0  0  0
 25 20  1  0  0  0
  1  2  2  0  0  0
  3 10  2  0  0  0
  4  7  2  0  0  0
  5  8  2  0  0  0
  6  9  2  0  0  0
 11 18  2  0  0  0
 12 22  2  0  0  0
 25 23  2  0  0  0
 25 24  2  0  0  0
M  CHG  1  21  -1
M  END
> <rmsd>
0.510160148

$$$$
ZINC64472356


 25 27  0  0  0  0  0  0  0  0999 V2000
   -3.2803   -2.5840    0.4525 C   0  0  0  0  0
   -2.8812   -3.1082   -0.7769 C   0  0  0  0  0
   -3.2328   -1.2074    0.6723 C   0  0  0  0  0
    1.0044    0.7845   -0.3096 C   0  0  0  0  0
   -2.3869   -0.8790   -1.5667 C   0  0  0  0  0
    0.0115    2.7191   -1.2730 C   0  0  0  0  0
    2.0567    0.9138   -1.2091 C   0  0  0  0  0
   -2.4344   -2.2558   -1.7866 C   0  0  0  0  0
   -0.0416    1.7002   -0.3357 C   0  0  0  0  0
   -2.7860   -0.3549   -0.3372 C   0  0  0  0  0
    2.0159    1.9679   -2.1076 C   0  0  0  0  0
    3.1636   -0.0575   -1.1796 C   0  0  0  0  0
    5.1717    2.6996   -3.9563 C   0  0  0  0  0
    4.3706    1.9485   -5.0003 C   0  0  0  0  0
    4.4861    2.3007   -2.6545 C   0  0  0  0  0
    2.9422    2.0743   -4.4829 C   0  0  0  0  0
   -2.0062   -2.8172   -3.1004 C   0  0  0  0  0
    1.0169    2.8771   -2.1628 N   0  0  0  0  0
    3.0781    2.1052   -3.0215 N   0  0  0  0  0
   -1.1341    1.5938    0.5732 N   0  0  0  0  0
    3.0765   -1.1169   -1.9058 O   0  0  0  0  0
    4.1803    0.1857   -0.4283 O   0  0  0  0  0
   -3.6903    1.6840    0.9860 O   0  0  0  0  0
   -2.8359    2.0501   -1.3453 O   0  0  0  0  0
   -2.7257    1.3917   -0.0579 S   0  0  0  0  0
  1  3  1  0  0  0
  2  8  1  0  0  0
  4  9  1  0  0  0
  5 10  1  0  0  0
  6 18  1  0  0  0
  7 11  1  0  0  0
  7 12  1  0  0  0
  9 20  1  0  0  0
 11 19  1  0  0  0
 12 21  1  0  0  0
 13 14  1  0  0  0
 13 15  1  0  0  0
 14 16  1  0  0  0
 15 19  1  0  0  0
 16 19  1  0  0  0
 17  8  1  0  0  0
 25 10  1  0  0  0
 25 20  1  0  0  0
  1  2  2  0  0  0
  3 10  2  0  0  0
  4  7  2  0  0  0
  5  8  2  0  0  0
  6  9  2  0  0  0
 11 18  2  0  0  0
 12 22  2  0  0  0
 25 23  2  0  0  0
 25 24  2  0  0  0
M  CHG  1  21  -1
M  END
> <rmsd>
0.6890046

$$$$
ZINC35397452


 25 27  0  0  0  0  0  0  0  0999 V2000
   -3.5703   -2.5605    0.5589 C   0  0  0  0  0
   -2.9167   -2.3218   -1.7548 C   0  0  0  0  0
   -3.3976   -1.1895    0.7491 C   0  0  0  0  0
   -2.7440   -0.9509   -1.5645 C   0  0  0  0  0
    0.8675    0.4570   -0.6598 C   0  0  0  0  0
   -0.0614    2.4522   -1.5615 C   0  0  0  0  0
    1.8369    0.4943   -1.6559 C   0  0  0  0  0
   -3.3298   -3.1267   -0.6931 C   0  0  0  0  0
   -0.1034    1.4508   -0.6048 C   0  0  0  0  0
   -2.9844   -0.3847   -0.3126 C   0  0  0  0  0
    1.7919    1.5383   -2.5657 C   0  0  0  0  0
    2.8642   -0.5598   -1.7121 C   0  0  0  0  0
    4.8055    2.0022   -4.7140 C   0  0  0  0  0
    3.8543    1.3042   -5.6648 C   0  0  0  0  0
    4.2175    1.6721   -3.3468 C   0  0  0  0  0
    2.4950    1.5463   -5.0187 C   0  0  0  0  0
   -3.5123   -4.5927   -0.8962 C   0  0  0  0  0
    0.8645    2.5218   -2.5440 N   0  0  0  0  0
    2.7703    1.5826   -3.5771 N   0  0  0  0  0
   -1.1100    1.4397    0.4039 N   0  0  0  0  0
    2.6283   -1.6171   -2.4076 O   0  0  0  0  0
    3.9629   -0.3881   -1.0636 O   0  0  0  0  0
   -3.6014    1.7328    1.0518 O   0  0  0  0  0
   -2.9457    2.0057   -1.3554 O   0  0  0  0  0
   -2.7649    1.3550   -0.0720 S   0  0  0  0  0
  1  8  1  0  0  0
  2  4  1  0  0  0
  3 10  1  0  0  0
  5  9  1  0  0  0
  6 18  1  0  0  0
  7 11  1  0  0  0
  7 12  1  0  0  0
  9 20  1  0  0  0
 11 19  1  0  0  0
 12 21  1  0  0  0
 13 14  1  0  0  0
 13 15  1  0  0  0
 14 16  1  0  0  0
 15 19  1  0  0  0
 16 19  1  0  0  0
 17  8  1  0  0  0
 25 10  1  0  0  0
 25 20  1  0  0  0
  1  3  2  0  0  0
  2  8  2  0  0  0
  4 10  2  0  0  0
  5  7  2  0  0  0
  6  9  2  0  0  0
 11 18  2  0  0  0
 12 22  2  0  0  0
 25 23  2  0  0  0
 25 24  2  0  0  0
M  CHG  1  21  -1
M  END
> <rmsd>
0.510246336

$$$$
ZINC35397452


 25 27  0  0  0  0  0  0  0  0999 V2000
   -3.2797   -2.5849    0.4528 C   0  0  0  0  0
   -2.4339   -2.2556   -1.7862 C   0  0  0  0  0
   -3.2328   -1.2084    0.6731 C   0  0  0  0  0
   -2.3870   -0.8791   -1.5659 C   0  0  0  0  0
    1.0038    0.7846   -0.3097 C   0  0  0  0  0
    0.0105    2.7187   -1.2737 C   0  0  0  0  0
    2.0560    0.9137   -1.2094 C   0  0  0  0  0
   -2.8802   -3.1086   -0.7768 C   0  0  0  0  0
   -0.0424    1.7001   -0.3359 C   0  0  0  0  0
   -2.7864   -0.3554   -0.3363 C   0  0  0  0  0
    2.0148    1.9674   -2.1083 C   0  0  0  0  0
    3.1630   -0.0574   -1.1798 C   0  0  0  0  0
    5.1702    2.6990   -3.9578 C   0  0  0  0  0
    4.3691    1.9473   -5.0014 C   0  0  0  0  0
    4.4849    2.3004   -2.6557 C   0  0  0  0  0
    2.9407    2.0731   -4.4838 C   0  0  0  0  0
   -2.9283   -4.5803   -1.0119 C   0  0  0  0  0
    1.0157    2.8765   -2.1637 N   0  0  0  0  0
    3.0768    2.1046   -3.0224 N   0  0  0  0  0
   -1.1347    1.5939    0.5732 N   0  0  0  0  0
    3.0760   -1.1171   -1.9055 O   0  0  0  0  0
    4.1798    0.1863   -0.4287 O   0  0  0  0  0
   -3.6909    1.6839    0.9863 O   0  0  0  0  0
   -2.8369    2.0492   -1.3453 O   0  0  0  0  0
   -2.7264    1.3914   -0.0576 S   0  0  0  0  0
  1  8  1  0  0  0
  2  4  1  0  0  0
  3 10  1  0  0  0
  5  9  1  0  0  0
  6 18  1  0  0  0
  7 11  1  0  0  0
  7 12  1  0  0  0
  9 20  1  0  0  0
 11 19  1  0  0  0
 12 21  1  0  0  0
 13 14  1  0  0  0
 13 15  1  0  0  0
 14 16  1  0  0  0
 15 19  1  0  0  0
 16 19  1  0  0  0
 17  8  1  0  0  0
 25 10  1  0  0  0
 25 20  1  0  0  0
  1  3  2  0  0  0
  2  8  2  0  0  0
  4 10  2  0  0  0
  5  7  2  0  0  0
  6  9  2  0  0  0
 11 18  2  0  0  0
 12 22  2  0  0  0
 25 23  2  0  0  0
 25 24  2  0  0  0
M  CHG  1  21  -1
M  END
> <rmsd>
0.689229846

$$$$
ZINC78481245


 25 26  0  0  0  0  0  0  0  0999 V2000
    0.6905    2.4715   -2.7248 C   0  0  0  0  0
    1.5333    1.3789   -2.9285 C   0  0  0  0  0
   -3.7367   -2.5316    0.6025 C   0  0  0  0  0
   -3.2420   -2.2860   -1.7495 C   0  0  0  0  0
   -0.2031    2.4729   -1.6537 C   0  0  0  0  0
   -3.5096   -1.1686    0.7927 C   0  0  0  0  0
   -3.0149   -0.9229   -1.5593 C   0  0  0  0  0
    1.4825    0.2877   -2.0611 C   0  0  0  0  0
   -3.6028   -3.0904   -0.6685 C   0  0  0  0  0
    0.5889    0.2891   -0.9900 C   0  0  0  0  0
   -0.2538    1.3817   -0.7863 C   0  0  0  0  0
   -3.1488   -0.3643   -0.2882 C   0  0  0  0  0
    2.3839   -0.8549   -2.2982 C   0  0  0  0  0
    0.5346   -0.8819   -0.0593 C   0  0  0  0  0
   -3.7749   -7.4021    0.1715 C   0  0  0  0  0
   -3.2327   -7.2652   -2.2673 C   0  0  0  0  0
   -3.8478   -4.5653   -0.8744 C   0  0  0  0  0
   -2.5603   -5.3775   -0.6883 C   0  0  0  0  0
   -2.7638   -6.8944   -0.8596 C   0  0  0  0  0
   -1.1832    1.4045    0.3109 N   0  0  0  0  0
    3.5451   -0.8502   -1.7443 O   0  0  0  0  0
    1.9772   -1.8161   -3.0507 O   0  0  0  0  0
   -3.6010    1.7527    1.1401 O   0  0  0  0  0
   -3.1216    2.0367   -1.3071 O   0  0  0  0  0
   -2.8667    1.3423   -0.0508 S   0  0  0  0  0
  1  2  1  0  0  0
  3  9  1  0  0  0
  4  7  1  0  0  0
  5 11  1  0  0  0
  6 12  1  0  0  0
  8 10  1  0  0  0
  8 13  1  0  0  0
 11 20  1  0  0  0
 13 21  1  0  0  0
 14 10  1  0  0  0
 15 19  1  0  0  0
 16 19  1  0  0  0
 17  9  1  0  0  0
 17 18  1  0  0  0
 18 19  1  0  0  0
 25 12  1  0  0  0
 25 20  1  0  0  0
  1  5  2  0  0  0
  2  8  2  0  0  0
  3  6  2  0  0  0
  4  9  2  0  0  0
  7 12  2  0  0  0
 10 11  2  0  0  0
 13 22  2  0  0  0
 25 23  2  0  0  0
 25 24  2  0  0  0
M  CHG  1  21  -1
M  END
> <rmsd>
0.390501797

$$$$
ZINC78481245


 25 26  0  0  0  0  0  0  0  0999 V2000
    1.0190    2.6216   -2.3766 C   0  0  0  0  0
    1.9304    1.5706   -2.4775 C   0  0  0  0  0
   -3.4880   -2.5711    0.5261 C   0  0  0  0  0
   -2.7601   -2.3173   -1.7636 C   0  0  0  0  0
    0.0182    2.5862   -1.4055 C   0  0  0  0  0
   -3.3484   -1.1973    0.7228 C   0  0  0  0  0
   -2.6205   -0.9434   -1.5669 C   0  0  0  0  0
    1.8410    0.4841   -1.6073 C   0  0  0  0  0
   -3.1937   -3.1312   -0.7171 C   0  0  0  0  0
    0.8402    0.4486   -0.6362 C   0  0  0  0  0
   -0.0711    1.4998   -0.5353 C   0  0  0  0  0
   -2.9147   -0.3835   -0.3236 C   0  0  0  0  0
    2.8165   -0.6143   -1.7347 C   0  0  0  0  0
    0.7446   -0.7173    0.2974 C   0  0  0  0  0
   -3.2450   -7.4403    0.1515 C   0  0  0  0  0
   -2.4556   -7.2933   -2.2182 C   0  0  0  0  0
   -3.3440   -4.6177   -0.9301 C   0  0  0  0  0
   -2.0457   -5.3642   -0.5999 C   0  0  0  0  0
   -2.1564   -6.8904   -0.7736 C   0  0  0  0  0
   -1.1112    1.4841    0.4577 N   0  0  0  0  0
    3.9112   -0.5485   -1.0618 O   0  0  0  0  0
    2.5385   -1.5994   -2.5143 O   0  0  0  0  0
   -3.6170    1.7182    1.0239 O   0  0  0  0  0
   -2.8961    2.0089   -1.3625 O   0  0  0  0  0
   -2.7420    1.3365   -0.0783 S   0  0  0  0  0
  1  2  1  0  0  0
  3  9  1  0  0  0
  4  7  1  0  0  0
  5 11  1  0  0  0
  6 12  1  0  0  0
  8 10  1  0  0  0
  8 13  1  0  0  0
 11 20  1  0  0  0
 13 21  1  0  0  0
 14 10  1  0  0  0
 15 19  1  0  0  0
 16 19  1  0  0  0
 17  9  1  0  0  0
 17 18  1  0  0  0
 18 19  1  0  0  0
 25 12  1  0  0  0
 25 20  1  0  0  0
  1  5  2  0  0  0
  2  8  2  0  0  0
  3  6  2  0  0  0
  4  9  2  0  0  0
  7 12  2  0  0  0
 10 11  2  0  0  0
 13 22  2  0  0  0
 25 23  2  0  0  0
 25 24  2  0  0  0
M  CHG  1  21  -1
M  END
> <rmsd>
0.566847265

$$$$
ZINC65844502


 25 26  0  0  0  0  0  0  0  0999 V2000
    1.0384    2.6439   -2.3439 C   0  0  0  0  0
    1.9477    1.5917   -2.4523 C   0  0  0  0  0
    0.0313    2.5988   -1.3799 C   0  0  0  0  0
    1.8500    0.4945   -1.5967 C   0  0  0  0  0
    0.8428    0.4494   -0.6326 C   0  0  0  0  0
   -3.2060   -3.1313   -0.7097 C   0  0  0  0  0
   -3.4977   -2.5691    0.5331 C   0  0  0  0  0
   -2.7721   -2.3196   -1.7578 C   0  0  0  0  0
   -3.3555   -1.1952    0.7277 C   0  0  0  0  0
   -2.6300   -0.9457   -1.5631 C   0  0  0  0  0
   -0.0665    1.5015   -0.5242 C   0  0  0  0  0
   -2.9216   -0.3835   -0.3204 C   0  0  0  0  0
    2.8233   -0.6047   -1.7316 C   0  0  0  0  0
    0.7380   -0.7281    0.2855 C   0  0  0  0  0
   -3.3577   -4.6051   -0.9183 C   0  0  0  0  0
   -3.9623   -3.4412    1.6569 C   0  0  0  0  0
   -2.4590   -2.9239   -3.0905 C   0  0  0  0  0
   -3.6713   -0.6030    2.0657 C   0  0  0  0  0
   -2.1635   -0.0846   -2.6953 C   0  0  0  0  0
   -1.1072    1.4762    0.4563 N   0  0  0  0  0
    3.9138   -0.5505   -1.0509 O   0  0  0  0  0
    2.5479   -1.5790   -2.5256 O   0  0  0  0  0
   -3.6189    1.7222    1.0235 O   0  0  0  0  0
   -2.8937    2.0075   -1.3624 O   0  0  0  0  0
   -2.7411    1.3598   -0.0738 S   0  0  0  0  0
  1  2  1  0  0  0
  3 11  1  0  0  0
  4  5  1  0  0  0
  4 13  1  0  0  0
  6  8  1  0  0  0
  7  9  1  0  0  0
 10 12  1  0  0  0
 11 20  1  0  0  0
 13 21  1  0  0  0
 14  5  1  0  0  0
 15  6  1  0  0  0
 16  7  1  0  0  0
 17  8  1  0  0  0
 18  9  1  0  0  0
 19 10  1  0  0  0
 25 12  1  0  0  0
 25 20  1  0  0  0
  1  3  2  0  0  0
  2  4  2  0  0  0
  5 11  2  0  0  0
  6  7  2  0  0  0
  8 10  2  0  0  0
  9 12  2  0  0  0
 13 22  2  0  0  0
 25 23  2  0  0  0
 25 24  2  0  0  0
M  CHG  1  21  -1
M  END
> <rmsd>
0.559157193

$$$$
ZINC65844502


 25 26  0  0  0  0  0  0  0  0999 V2000
    0.7105    2.5003   -2.6957 C   0  0  0  0  0
    1.5513    1.4079   -2.9088 C   0  0  0  0  0
   -0.1896    2.4901   -1.6302 C   0  0  0  0  0
    1.4920    0.3054   -2.0565 C   0  0  0  0  0
    0.5917    0.2952   -0.9910 C   0  0  0  0  0
   -3.6106   -3.0892   -0.6648 C   0  0  0  0  0
   -3.7413   -2.5302    0.6065 C   0  0  0  0  0
   -3.2516   -2.2851   -1.7466 C   0  0  0  0  0
   -3.5130   -1.1673    0.7959 C   0  0  0  0  0
   -3.0235   -0.9222   -1.5572 C   0  0  0  0  0
   -0.2490    1.3875   -0.7778 C   0  0  0  0  0
   -3.1541   -0.3632   -0.2859 C   0  0  0  0  0
    2.3913   -0.8366   -2.3032 C   0  0  0  0  0
    0.5282   -0.8880   -0.0763 C   0  0  0  0  0
   -3.8546   -4.5514   -0.8679 C   0  0  0  0  0
   -4.1257   -3.3941    1.7664 C   0  0  0  0  0
   -3.1112   -2.8860   -3.1099 C   0  0  0  0  0
   -3.6562   -0.5783    2.1646 C   0  0  0  0  0
   -2.6387   -0.0692   -2.7256 C   0  0  0  0  0
   -1.1799    1.3984    0.3078 N   0  0  0  0  0
    3.5491   -0.8428   -1.7421 O   0  0  0  0  0
    1.9865   -1.7863   -3.0711 O   0  0  0  0  0
   -3.6023    1.7552    1.1414 O   0  0  0  0  0
   -3.1214    2.0372   -1.3058 O   0  0  0  0  0
   -2.8645    1.3663   -0.0460 S   0  0  0  0  0
  1  2  1  0  0  0
  3 11  1  0  0  0
  4  5  1  0  0  0
  4 13  1  0  0  0
  6  8  1  0  0  0
  7  9  1  0  0  0
 10 12  1  0  0  0
 11 20  1  0  0  0
 13 21  1  0  0  0
 14  5  1  0  0  0
 15  6  1  0  0  0
 16  7  1  0  0  0
 17  8  1  0  0  0
 18  9  1  0  0  0
 19 10  1  0  0  0
 25 12  1  0  0  0
 25 20  1  0  0  0
  1  3  2  0  0  0
  2  4  2  0  0  0
  5 11  2  0  0  0
  6  7  2  0  0  0
  8 10  2  0  0  0
  9 12  2  0  0  0
 13 22  2  0  0  0
 25 23  2  0  0  0
 25 24  2  0  0  0
M  CHG  1  21  -1
M  END
> <rmsd>
0.3872284

$$$$
ZINC64499338


 25 26  0  0  0  0  0  0  0  0999 V2000
   -2.3436   -2.7771    0.0639 C   0  0  0  0  0
   -3.0017   -0.9941   -1.4278 C   0  0  0  0  0
   -3.6023   -2.7398    0.6637 C   0  0  0  0  0
   -4.2604   -0.9569   -0.8279 C   0  0  0  0  0
   -2.0432   -1.9041   -0.9819 C   0  0  0  0  0
   -4.5607   -1.8298    0.2179 C   0  0  0  0  0
   -0.7415   -1.9433   -1.6028 C   0  0  0  0  0
    1.3456   -1.5323   -2.0323 C   0  0  0  0  0
   -0.3375    1.0502   -0.4110 C   0  0  0  0  0
   -3.0679    2.6427    0.4200 C   0  0  0  0  0
   -5.9065   -1.7898    0.8594 C   0  0  0  0  0
   -4.5736    5.1042   -2.7373 C   0  0  0  0  0
   -4.6835    2.5970   -2.8983 C   0  0  0  0  0
    0.3372   -0.2627   -0.0759 C   0  0  0  0  0
   -1.6041    2.8928    0.6788 C   0  0  0  0  0
   -5.0412    3.7254   -0.6511 C   0  0  0  0  0
   -5.2112    3.8346   -2.1713 C   0  0  0  0  0
   -0.3986   -2.6800   -2.6353 N   0  0  0  0  0
    0.9292   -2.4185   -2.9086 N   0  0  0  0  0
    0.3261   -1.2049   -1.1908 N   0  0  0  0  0
   -0.8841    1.6116    0.7173 N   0  0  0  0  0
   -3.6144    3.6983   -0.2584 N   0  0  0  0  0
   -0.3764    1.5214   -1.5444 O   0  0  0  0  0
   -3.6531    1.6243    0.7788 O   0  0  0  0  0
    2.9105   -0.8835   -1.9431 S   0  0  0  0  0
  1  5  1  0  0  0
  2  4  1  0  0  0
  3  6  1  0  0  0
  5  7  1  0  0  0
  7 20  1  0  0  0
  8 19  1  0  0  0
  8 20  1  0  0  0
  9 21  1  0  0  0
 10 22  1  0  0  0
 11  6  1  0  0  0
 12 17  1  0  0  0
 13 17  1  0  0  0
 14  9  1  0  0  0
 14 20  1  0  0  0
 15 10  1  0  0  0
 15 21  1  0  0  0
 16 17  1  0  0  0
 16 22  1  0  0  0
 18 19  1  0  0  0
  1  3  2  0  0  0
  2  5  2  0  0  0
  4  6  2  0  0  0
  7 18  2  0  0  0
  8 25  2  0  0  0
  9 23  2  0  0  0
 10 24  2  0  0  0
M  CHG  1  25  -1
M  END
> <rmsd>
0.498364121

$$$$
ZINC64499338


 25 26  0  0  0  0  0  0  0  0999 V2000
   -2.3433   -2.7770    0.0643 C   0  0  0  0  0
   -3.0015   -0.9942   -1.4275 C   0  0  0  0  0
   -3.6020   -2.7398    0.6642 C   0  0  0  0  0
   -4.2603   -0.9570   -0.8276 C   0  0  0  0  0
   -2.0430   -1.9041   -0.9815 C   0  0  0  0  0
   -4.5604   -1.8298    0.2183 C   0  0  0  0  0
   -0.7412   -1.9433   -1.6024 C   0  0  0  0  0
    1.3457   -1.5322   -2.0321 C   0  0  0  0  0
   -0.3375    1.0504   -0.4110 C   0  0  0  0  0
   -3.0679    2.6428    0.4199 C   0  0  0  0  0
   -5.9062   -1.7899    0.8599 C   0  0  0  0  0
   -5.5165    5.8049    0.7349 C   0  0  0  0  0
   -7.4069    4.2759    0.0920 C   0  0  0  0  0
    0.3373   -0.2624   -0.0758 C   0  0  0  0  0
   -1.6042    2.8930    0.6786 C   0  0  0  0  0
   -5.0414    3.7253   -0.6513 C   0  0  0  0  0
   -5.9187    4.3603    0.4344 C   0  0  0  0  0
   -0.3983   -2.6801   -2.6349 N   0  0  0  0  0
    0.9295   -2.4185   -2.9082 N   0  0  0  0  0
    0.3263   -1.2047   -1.1906 N   0  0  0  0  0
   -0.8840    1.6119    0.7172 N   0  0  0  0  0
   -3.6145    3.6983   -0.2586 N   0  0  0  0  0
   -0.3764    1.5215   -1.5445 O   0  0  0  0  0
   -3.6531    1.6243    0.7788 O   0  0  0  0  0
    2.9106   -0.8833   -1.9430 S   0  0  0  0  0
  1  5  1  0  0  0
  2  4  1  0  0  0
  3  6  1  0  0  0
  5  7  1  0  0  0
  7 20  1  0  0  0
  8 19  1  0  0  0
  8 20  1  0  0  0
  9 21  1  0  0  0
 10 22  1  0  0  0
 11  6  1  0  0  0
 12 17  1  0  0  0
 13 17  1  0  0  0
 14  9  1  0  0  0
 14 20  1  0  0  0
 15 10  1  0  0  0
 15 21  1  0  0  0
 16 17  1  0  0  0
 16 22  1  0  0  0
 18 19  1  0  0  0
  1  3  2  0  0  0
  2  5  2  0  0  0
  4  6  2  0  0  0
  7 18  2  0  0  0
  8 25  2  0  0  0
  9 23  2  0  0  0
 10 24  2  0  0  0
M  CHG  1  25  -1
M  END
> <rmsd>
0.498475105

$$$$
ZINC64499338


 25 26  0  0  0  0  0  0  0  0999 V2000
   -2.3459   -2.7949   -0.0170 C   0  0  0  0  0
   -2.9007   -1.1227   -1.6701 C   0  0  0  0  0
   -3.6482   -2.7369    0.4789 C   0  0  0  0  0
   -4.2032   -1.0647   -1.1742 C   0  0  0  0  0
   -1.9719   -1.9877   -1.0915 C   0  0  0  0  0
   -4.5769   -1.8718   -0.0997 C   0  0  0  0  0
   -0.6250   -2.0484   -1.6047 C   0  0  0  0  0
    1.4855   -1.6362   -1.8961 C   0  0  0  0  0
   -0.3443    1.0220   -0.5856 C   0  0  0  0  0
   -3.1579    2.7221    0.6510 C   0  0  0  0  0
   -5.9695   -1.8096    0.4306 C   0  0  0  0  0
   -4.8909    4.7078    3.1856 C   0  0  0  0  0
   -5.2205    6.4590    1.4110 C   0  0  0  0  0
    0.3141   -0.2564   -0.1127 C   0  0  0  0  0
   -1.7101    2.9131    0.2776 C   0  0  0  0  0
   -5.2939    4.0010    0.7752 C   0  0  0  0  0
   -5.5813    5.0432    1.8629 C   0  0  0  0  0
   -0.1948   -2.8458   -2.5563 N   0  0  0  0  0
    1.1480   -2.5835   -2.7417 N   0  0  0  0  0
    0.3998   -1.2693   -1.1603 N   0  0  0  0  0
   -0.9834    1.6477    0.4569 N   0  0  0  0  0
   -3.8463    3.8935    0.4861 N   0  0  0  0  0
   -0.2979    1.4176   -1.7473 O   0  0  0  0  0
   -3.6199    1.6530    1.0409 O   0  0  0  0  0
    3.0324   -0.9603   -1.7279 S   0  0  0  0  0
  1  5  1  0  0  0
  2  4  1  0  0  0
  3  6  1  0  0  0
  5  7  1  0  0  0
  7 20  1  0  0  0
  8 19  1  0  0  0
  8 20  1  0  0  0
  9 21  1  0  0  0
 10 22  1  0  0  0
 11  6  1  0  0  0
 12 17  1  0  0  0
 13 17  1  0  0  0
 14  9  1  0  0  0
 14 20  1  0  0  0
 15 10  1  0  0  0
 15 21  1  0  0  0
 16 17  1  0  0  0
 16 22  1  0  0  0
 18 19  1  0  0  0
  1  3  2  0  0  0
  2  5  2  0  0  0
  4  6  2  0  0  0
  7 18  2  0  0  0
  8 25  2  0  0  0
  9 23  2  0  0  0
 10 24  2  0  0  0
M  CHG  1  25  -1
M  END
> <rmsd>
0.538232148

$$$$
ZINC68254827


 25 26  0  0  0  0  0  0  0  0999 V2000
   -2.3774   -2.7654   -0.0043 C   0  0  0  0  0
   -2.9305   -1.0699   -1.6340 C   0  0  0  0  0
   -3.6738   -2.6979    0.5061 C   0  0  0  0  0
   -4.2270   -1.0023   -1.1237 C   0  0  0  0  0
   -2.0057   -1.9514   -1.0742 C   0  0  0  0  0
   -4.5986   -1.8163   -0.0536 C   0  0  0  0  0
   -0.6651   -2.0220   -1.6026 C   0  0  0  0  0
    1.4469   -1.6307   -1.9121 C   0  0  0  0  0
   -0.3384    1.0343   -0.5549 C   0  0  0  0  0
   -3.1553    2.6757    0.6002 C   0  0  0  0  0
   -5.9847   -1.7438    0.4922 C   0  0  0  0  0
   -0.7122    4.8703    3.6429 C   0  0  0  0  0
    0.3721    4.3535    0.9290 C   0  0  0  0  0
    0.3101   -0.2564   -0.1023 C   0  0  0  0  0
   -1.2517    3.7652    2.7463 C   0  0  0  0  0
   -1.6734    2.9317    0.3423 C   0  0  0  0  0
   -1.1037    4.0567    1.2369 C   0  0  0  0  0
   -0.2540   -2.8142   -2.5668 N   0  0  0  0  0
    1.0896   -2.5653   -2.7638 N   0  0  0  0  0
    0.3733   -1.2592   -1.1610 N   0  0  0  0  0
   -3.9471    3.7667    0.3102 N   0  0  0  0  0
   -0.9736    1.6819    0.4976 N   0  0  0  0  0
   -0.2999    1.4414   -1.7128 O   0  0  0  0  0
   -3.6038    1.6025    0.9963 O   0  0  0  0  0
    3.0031   -0.9741   -1.7535 S   0  0  0  0  0
  1  5  1  0  0  0
  2  4  1  0  0  0
  3  6  1  0  0  0
  5  7  1  0  0  0
  7 20  1  0  0  0
  8 19  1  0  0  0
  8 20  1  0  0  0
  9 22  1  0  0  0
 10 21  1  0  0  0
 11  6  1  0  0  0
 12 15  1  0  0  0
 13 17  1  0  0  0
 14  9  1  0  0  0
 14 20  1  0  0  0
 15 17  1  0  0  0
 16 10  1  0  0  0
 16 17  1  0  0  0
 16 22  1  0  0  0
 18 19  1  0  0  0
  1  3  2  0  0  0
  2  5  2  0  0  0
  4  6  2  0  0  0
  7 18  2  0  0  0
  8 25  2  0  0  0
  9 23  2  0  0  0
 10 24  2  0  0  0
M  CHG  1  25  -1
M  END
> <rmsd>
0.518218935

$$$$
ZINC68254830


 25 26  0  0  0  0  0  0  0  0999 V2000
   -2.3771   -2.7659   -0.0033 C   0  0  0  0  0
   -2.9304   -1.0707   -1.6334 C   0  0  0  0  0
   -3.6735   -2.6985    0.5070 C   0  0  0  0  0
   -4.2269   -1.0032   -1.1231 C   0  0  0  0  0
   -2.0055   -1.9520   -1.0734 C   0  0  0  0  0
   -4.5985   -1.8171   -0.0529 C   0  0  0  0  0
   -0.6648   -2.0225   -1.6016 C   0  0  0  0  0
    1.4470   -1.6309   -1.9113 C   0  0  0  0  0
   -0.3387    1.0340   -0.5545 C   0  0  0  0  0
   -3.1558    2.6752    0.6001 C   0  0  0  0  0
   -5.9846   -1.7447    0.4928 C   0  0  0  0  0
    0.6822    4.7668   -0.4684 C   0  0  0  0  0
   -1.2903    3.7623    2.7334 C   0  0  0  0  0
    0.3101   -0.2565   -0.1017 C   0  0  0  0  0
    0.3878    4.3462    0.9643 C   0  0  0  0  0
   -1.6739    2.9313    0.3422 C   0  0  0  0  0
   -1.1045    4.0565    1.2368 C   0  0  0  0  0
   -0.2536   -2.8149   -2.5658 N   0  0  0  0  0
    1.0900   -2.5657   -2.7627 N   0  0  0  0  0
    0.3733   -1.2595   -1.1602 N   0  0  0  0  0
   -3.9478    3.7660    0.3099 N   0  0  0  0  0
   -0.9740    1.6816    0.4978 N   0  0  0  0  0
   -0.3002    1.4409   -1.7126 O   0  0  0  0  0
   -3.6043    1.6020    0.9966 O   0  0  0  0  0
    3.0032   -0.9741   -1.7526 S   0  0  0  0  0
  1  5  1  0  0  0
  2  4  1  0  0  0
  3  6  1  0  0  0
  5  7  1  0  0  0
  7 20  1  0  0  0
  8 19  1  0  0  0
  8 20  1  0  0  0
  9 22  1  0  0  0
 10 21  1  0  0  0
 11  6  1  0  0  0
 12 15  1  0  0  0
 13 17  1  0  0  0
 14  9  1  0  0  0
 14 20  1  0  0  0
 15 17  1  0  0  0
 16 10  1  0  0  0
 16 17  1  0  0  0
 16 22  1  0  0  0
 18 19  1  0  0  0
  1  3  2  0  0  0
  2  5  2  0  0  0
  4  6  2  0  0  0
  7 18  2  0  0  0
  8 25  2  0  0  0
  9 23  2  0  0  0
 10 24  2  0  0  0
M  CHG  1  25  -1
M  END
> <rmsd>
0.518175721

$$$$
ZINC68254827


 25 26  0  0  0  0  0  0  0  0999 V2000
   -2.1877   -2.9215   -0.0149 C   0  0  0  0  0
   -2.8730   -1.1504   -1.5084 C   0  0  0  0  0
   -3.4526   -2.9155    0.5728 C   0  0  0  0  0
   -4.1381   -1.1444   -0.9207 C   0  0  0  0  0
   -1.8978   -2.0389   -1.0555 C   0  0  0  0  0
   -4.4279   -2.0269    0.1200 C   0  0  0  0  0
   -0.5897   -2.0459   -1.6639 C   0  0  0  0  0
    1.4912   -1.5849   -2.0721 C   0  0  0  0  0
   -0.2676    0.9532   -0.4608 C   0  0  0  0  0
   -3.0191    2.4460    0.1984 C   0  0  0  0  0
   -5.7804   -2.0203    0.7485 C   0  0  0  0  0
    0.7111    4.6992    1.4277 C   0  0  0  0  0
   -2.3149    4.8618    1.8915 C   0  0  0  0  0
    0.4344   -0.3446   -0.1225 C   0  0  0  0  0
   -0.0810    3.8490    2.4105 C   0  0  0  0  0
   -1.5877    2.7625    0.6212 C   0  0  0  0  0
   -1.5244    3.5456    1.9528 C   0  0  0  0  0
   -0.2195   -2.7715   -2.6948 N   0  0  0  0  0
    1.1043   -2.4782   -2.9546 N   0  0  0  0  0
    0.4563   -1.2837   -1.2397 N   0  0  0  0  0
   -3.3321    2.9399   -1.0504 N   0  0  0  0  0
   -0.8531    1.5238    0.6627 N   0  0  0  0  0
   -0.3067    1.4262   -1.5933 O   0  0  0  0  0
   -3.8048    1.7943    0.8827 O   0  0  0  0  0
    3.0396   -0.8997   -1.9660 S   0  0  0  0  0
  1  5  1  0  0  0
  2  4  1  0  0  0
  3  6  1  0  0  0
  5  7  1  0  0  0
  7 20  1  0  0  0
  8 19  1  0  0  0
  8 20  1  0  0  0
  9 22  1  0  0  0
 10 21  1  0  0  0
 11  6  1  0  0  0
 12 15  1  0  0  0
 13 17  1  0  0  0
 14  9  1  0  0  0
 14 20  1  0  0  0
 15 17  1  0  0  0
 16 10  1  0  0  0
 16 17  1  0  0  0
 16 22  1  0  0  0
 18 19  1  0  0  0
  1  3  2  0  0  0
  2  5  2  0  0  0
  4  6  2  0  0  0
  7 18  2  0  0  0
  8 25  2  0  0  0
  9 23  2  0  0  0
 10 24  2  0  0  0
M  CHG  1  25  -1
M  END
> <rmsd>
0.556846917

$$$$
ZINC68254830


 25 26  0  0  0  0  0  0  0  0999 V2000
   -2.1875   -2.9210   -0.0141 C   0  0  0  0  0
   -2.8732   -1.1502   -1.5078 C   0  0  0  0  0
   -3.4525   -2.9151    0.5738 C   0  0  0  0  0
   -4.1382   -1.1442   -0.9199 C   0  0  0  0  0
   -1.8979   -2.0385   -1.0548 C   0  0  0  0  0
   -4.4279   -2.0267    0.1208 C   0  0  0  0  0
   -0.5897   -2.0454   -1.6632 C   0  0  0  0  0
    1.4910   -1.5843   -2.0718 C   0  0  0  0  0
   -0.2679    0.9538   -0.4607 C   0  0  0  0  0
   -3.0195    2.4464    0.1985 C   0  0  0  0  0
   -5.7803   -2.0200    0.7495 C   0  0  0  0  0
   -1.7527    5.8589    0.8549 C   0  0  0  0  0
   -0.0807    3.8104    2.4062 C   0  0  0  0  0
    0.4343   -0.3438   -0.1222 C   0  0  0  0  0
   -2.2867    4.8888    1.8990 C   0  0  0  0  0
   -1.5881    2.7632    0.6210 C   0  0  0  0  0
   -1.5248    3.5465    1.9527 C   0  0  0  0  0
   -0.2196   -2.7712   -2.6941 N   0  0  0  0  0
    1.1042   -2.4778   -2.9540 N   0  0  0  0  0
    0.4561   -1.2831   -1.2392 N   0  0  0  0  0
   -3.3326    2.9401   -1.0503 N   0  0  0  0  0
   -0.8534    1.5245    0.6627 N   0  0  0  0  0
   -0.3072    1.4267   -1.5934 O   0  0  0  0  0
   -3.8051    1.7948    0.8830 O   0  0  0  0  0
    3.0393   -0.8989   -1.9658 S   0  0  0  0  0
  1  5  1  0  0  0
  2  4  1  0  0  0
  3  6  1  0  0  0
  5  7  1  0  0  0
  7 20  1  0  0  0
  8 19  1  0  0  0
  8 20  1  0  0  0
  9 22  1  0  0  0
 10 21  1  0  0  0
 11  6  1  0  0  0
 12 15  1  0  0  0
 13 17  1  0  0  0
 14  9  1  0  0  0
 14 20  1  0  0  0
 15 17  1  0  0  0
 16 10  1  0  0  0
 16 17  1  0  0  0
 16 22  1  0  0  0
 18 19  1  0  0  0
  1  3  2  0  0  0
  2  5  2  0  0  0
  4  6  2  0  0  0
  7 18  2  0  0  0
  8 25  2  0  0  0
  9 23  2  0  0  0
 10 24  2  0  0  0
M  CHG  1  25  -1
M  END
> <rmsd>
0.557034194

$$$$
ZINC35685524


 24 26  0  0  0  0  0  0  0  0999 V2000
   -2.8110   -0.1267   -3.4438 C   0  0  0  0  0
   -3.8270   -3.4494   -0.0381 C   0  0  0  0  0
   -3.1301   -1.4390   -3.0941 C   0  0  0  0  0
   -3.6418   -3.1122   -1.3791 C   0  0  0  0  0
    1.5911    1.7489   -1.7666 C   0  0  0  0  0
    1.6889   -0.4073   -0.6810 C   0  0  0  0  0
    0.4823    2.0888   -0.9916 C   0  0  0  0  0
    0.5801   -0.0674    0.0941 C   0  0  0  0  0
   -2.6778    0.8449   -2.4563 C   0  0  0  0  0
   -3.6937   -2.4779    0.9495 C   0  0  0  0  0
   -3.3202   -1.7963   -1.7493 C   0  0  0  0  0
   -3.1847   -0.8083   -0.7450 C   0  0  0  0  0
    2.1944    0.5008   -1.6113 C   0  0  0  0  0
   -0.0232    1.1807   -0.0612 C   0  0  0  0  0
   -2.8631    0.5077   -1.1152 C   0  0  0  0  0
   -3.3746   -1.1655    0.5999 C   0  0  0  0  0
    3.3650    0.1422   -2.4285 C   0  0  0  0  0
   -1.1674    1.5305    0.7366 N   0  0  0  0  0
    3.9033   -1.0162   -2.2652 O   0  0  0  0  0
    3.8125    0.9989   -3.2796 O   0  0  0  0  0
   -3.7165    1.8868    0.9085 O   0  0  0  0  0
   -2.4608    3.0766   -0.9099 O   0  0  0  0  0
   -2.6401    1.9054   -0.0684 S   0  0  0  0  0
   -3.2636   -0.1436    2.0003 Cl  0  0  0  0  0
  1  3  1  0  0  0
  2 10  1  0  0  0
  4 11  1  0  0  0
  5 13  1  0  0  0
  6  8  1  0  0  0
  7 14  1  0  0  0
  9 15  1  0  0  0
 11 12  1  0  0  0
 12 16  1  0  0  0
 13 17  1  0  0  0
 14 18  1  0  0  0
 16 24  1  0  0  0
 17 19  1  0  0  0
 23 15  1  0  0  0
 23 18  1  0  0  0
  1  9  2  0  0  0
  2  4  2  0  0  0
  3 11  2  0  0  0
  5  7  2  0  0  0
  6 13  2  0  0  0
  8 14  2  0  0  0
 10 16  2  0  0  0
 12 15  2  0  0  0
 17 20  2  0  0  0
 23 21  2  0  0  0
 23 22  2  0  0  0
M  CHG  1  19  -1
M  END
> <rmsd>
0.517401874

$$$$
ZINC32601596


 24 26  0  0  0  0  0  0  0  0999 V2000
   -3.7166   -2.3086    1.0276 C   0  0  0  0  0
   -3.8712   -3.3239    0.0882 C   0  0  0  0  0
   -3.3757   -1.0205    0.6142 C   0  0  0  0  0
   -3.6855   -3.0548   -1.2680 C   0  0  0  0  0
    1.6321    1.7813   -1.7096 C   0  0  0  0  0
    1.6948   -0.4153   -0.7056 C   0  0  0  0  0
    0.5134    2.1011   -0.9403 C   0  0  0  0  0
    0.5761   -0.0955    0.0638 C   0  0  0  0  0
   -2.6557    0.8282   -2.5371 C   0  0  0  0  0
   -2.8103   -0.1871   -3.4764 C   0  0  0  0  0
   -3.1848   -0.7317   -0.7469 C   0  0  0  0  0
   -3.3421   -1.7641   -1.7020 C   0  0  0  0  0
    2.2228    0.5230   -1.5924 C   0  0  0  0  0
   -0.0145    1.1626   -0.0536 C   0  0  0  0  0
   -2.8415    0.5591   -1.1808 C   0  0  0  0  0
   -3.1512   -1.4752   -3.0631 C   0  0  0  0  0
    3.4037    0.1858   -2.4036 C   0  0  0  0  0
   -1.1690    1.4917    0.7385 N   0  0  0  0  0
    3.9301   -0.9826   -2.2759 O   0  0  0  0  0
    3.8720    1.0703   -3.2140 O   0  0  0  0  0
   -3.7176    1.8638    0.8823 O   0  0  0  0  0
   -2.4213    3.1139   -0.8659 O   0  0  0  0  0
   -2.6251    1.9094   -0.0772 S   0  0  0  0  0
   -3.3161   -2.6638   -4.3166 Cl  0  0  0  0  0
  1  2  1  0  0  0
  3 11  1  0  0  0
  4 12  1  0  0  0
  5 13  1  0  0  0
  6  8  1  0  0  0
  7 14  1  0  0  0
  9 15  1  0  0  0
 10 16  1  0  0  0
 11 12  1  0  0  0
 13 17  1  0  0  0
 14 18  1  0  0  0
 16 24  1  0  0  0
 17 19  1  0  0  0
 23 15  1  0  0  0
 23 18  1  0  0  0
  1  3  2  0  0  0
  2  4  2  0  0  0
  5  7  2  0  0  0
  6 13  2  0  0  0
  8 14  2  0  0  0
  9 10  2  0  0  0
 11 15  2  0  0  0
 12 16  2  0  0  0
 17 20  2  0  0  0
 23 21  2  0  0  0
 23 22  2  0  0  0
M  CHG  1  19  -1
M  END
> <rmsd>
0.466952026

$$$$
ZINC64873010


 25 26  0  0  0  0  0  0  0  0999 V2000
    1.2992   -1.0072   -0.8028 C   0  0  0  0  0
    2.4061    1.1059   -1.1853 C   0  0  0  0  0
    0.2703   -0.3467   -0.1315 C   0  0  0  0  0
    1.3772    1.7664   -0.5140 C   0  0  0  0  0
   -3.8336   -0.1669   -1.0225 C   0  0  0  0  0
   -3.5021   -0.9399    1.2424 C   0  0  0  0  0
    2.3672   -0.2809   -1.3296 C   0  0  0  0  0
   -3.5609   -1.4488   -1.5000 C   0  0  0  0  0
   -3.2294   -2.2218    0.7650 C   0  0  0  0  0
    0.3093    1.0401    0.0129 C   0  0  0  0  0
   -3.8043    0.0876    0.3487 C   0  0  0  0  0
   -3.2587   -2.4763   -0.6062 C   0  0  0  0  0
    3.4526   -0.9773   -2.0388 C   0  0  0  0  0
   -0.8552    3.0775    0.9269 C   0  0  0  0  0
   -3.6040   -1.6755   -2.9772 C   0  0  0  0  0
   -2.9105   -3.2920    1.7593 C   0  0  0  0  0
   -2.1344    3.3784    1.6980 C   0  0  0  0  0
   -3.3438    3.6451    0.8068 C   0  0  0  0  0
   -3.7323    2.4336   -0.0341 C   0  0  0  0  0
   -0.7350    1.7104    0.6935 N   0  0  0  0  0
    4.4268   -0.2829   -2.5160 O   0  0  0  0  0
    3.3927   -2.2581   -2.1594 O   0  0  0  0  0
   -0.0658    3.9591    0.6043 O   0  0  0  0  0
   -4.0722    1.3469    0.8175 O   0  0  0  0  0
   -2.9200   -4.0677   -1.1990 Cl  0  0  0  0  0
  1  7  1  0  0  0
  2  4  1  0  0  0
  3 10  1  0  0  0
  5  8  1  0  0  0
  6 11  1  0  0  0
  7 13  1  0  0  0
  9 12  1  0  0  0
 10 20  1  0  0  0
 11 24  1  0  0  0
 12 25  1  0  0  0
 13 21  1  0  0  0
 14 20  1  0  0  0
 15  8  1  0  0  0
 16  9  1  0  0  0
 17 14  1  0  0  0
 17 18  1  0  0  0
 18 19  1  0  0  0
 19 24  1  0  0  0
  1  3  2  0  0  0
  2  7  2  0  0  0
  4 10  2  0  0  0
  5 11  2  0  0  0
  6  9  2  0  0  0
  8 12  2  0  0  0
 13 22  2  0  0  0
 14 23  2  0  0  0
M  CHG  1  21  -1
M  END
> <rmsd>
0.41505903

$$$$
ZINC01217732


 22 23  0  0  0  0  0  0  0  0999 V2000
    0.7136    2.4591   -2.7139 C   0  0  0  0  0
   -0.1856    2.4616   -1.6477 C   0  0  0  0  0
    1.5568    1.3659   -2.9128 C   0  0  0  0  0
   -3.6078   -3.0953   -0.6965 C   0  0  0  0  0
   -3.3282   -2.6328    0.5893 C   0  0  0  0  0
   -3.4222   -0.8418   -1.5474 C   0  0  0  0  0
    0.6015    0.2774   -0.9789 C   0  0  0  0  0
   -0.2417    1.3707   -0.7801 C   0  0  0  0  0
    1.5007    0.2750   -2.0453 C   0  0  0  0  0
   -3.1426   -0.3792   -0.2615 C   0  0  0  0  0
   -3.6548   -2.1997   -1.7649 C   0  0  0  0  0
   -3.0955   -1.2748    0.8069 C   0  0  0  0  0
    0.5366   -0.8912   -0.0441 C   0  0  0  0  0
   -1.1717    1.3947    0.3063 N   0  0  0  0  0
    2.3713   -0.8275   -2.2689 N   0  0  0  0  0
    3.5007   -0.8272   -1.7247 O   0  0  0  0  0
    1.9831   -1.7665   -3.0029 O   0  0  0  0  0
   -3.5939    1.7574    1.1373 O   0  0  0  0  0
   -3.1160    2.0072   -1.3140 O   0  0  0  0  0
   -2.8564    1.3539   -0.0454 S   0  0  0  0  0
   -3.9994   -2.7713   -3.3513 Cl  0  0  0  0  0
   -2.7542   -0.7543    2.4177 Cl  0  0  0  0  0
  1  2  1  0  0  0
  3  9  1  0  0  0
  4 11  1  0  0  0
  5 12  1  0  0  0
  6 10  1  0  0  0
  7  8  1  0  0  0
  8 14  1  0  0  0
  9 15  1  0  0  0
 11 21  1  0  0  0
 12 22  1  0  0  0
 13  7  1  0  0  0
 15 16  1  0  0  0
 20 10  1  0  0  0
 20 14  1  0  0  0
  1  3  2  0  0  0
  2  8  2  0  0  0
  4  5  2  0  0  0
  6 11  2  0  0  0
  7  9  2  0  0  0
 10 12  2  0  0  0
 15 17  2  0  0  0
 20 18  2  0  0  0
 20 19  2  0  0  0
M  CHG  2  15   1  16  -1
M  END
> <rmsd>
0.395994663

$$$$
ZINC01217732


 22 23  0  0  0  0  0  0  0  0999 V2000
    0.7492    2.5054   -2.6713 C   0  0  0  0  0
   -0.1588    2.4914   -1.6126 C   0  0  0  0  0
    1.5867    1.4109   -2.8865 C   0  0  0  0  0
   -3.6312   -3.0880   -0.6192 C   0  0  0  0  0
   -3.2630   -2.3164   -1.7213 C   0  0  0  0  0
   -3.5140   -1.1297    0.7910 C   0  0  0  0  0
    0.6083    0.2883   -0.9840 C   0  0  0  0  0
   -0.2293    1.3828   -0.7689 C   0  0  0  0  0
    1.5163    0.3023   -2.0428 C   0  0  0  0  0
   -3.1458   -0.3581   -0.3111 C   0  0  0  0  0
   -3.7568   -2.4947    0.6369 C   0  0  0  0  0
   -3.0202   -0.9515   -1.5673 C   0  0  0  0  0
    0.5281   -0.8994   -0.0748 C   0  0  0  0  0
   -1.1680    1.3900    0.3103 N   0  0  0  0  0
    2.3815   -0.8010   -2.2826 N   0  0  0  0  0
    3.5063   -0.8199   -1.7294 O   0  0  0  0  0
    1.9932   -1.7217   -3.0396 O   0  0  0  0  0
   -3.5946    1.7515    1.1290 O   0  0  0  0  0
   -3.0948    2.0498   -1.3125 O   0  0  0  0  0
   -2.8499    1.3681   -0.0559 S   0  0  0  0  0
   -4.2117   -3.4473    1.9961 Cl  0  0  0  0  0
   -2.5668   -0.0418   -2.9636 Cl  0  0  0  0  0
  1  2  1  0  0  0
  3  9  1  0  0  0
  4 11  1  0  0  0
  5 12  1  0  0  0
  6 10  1  0  0  0
  7  8  1  0  0  0
  8 14  1  0  0  0
  9 15  1  0  0  0
 11 21  1  0  0  0
 12 22  1  0  0  0
 13  7  1  0  0  0
 15 16  1  0  0  0
 20 10  1  0  0  0
 20 14  1  0  0  0
  1  3  2  0  0  0
  2  8  2  0  0  0
  4  5  2  0  0  0
  6 11  2  0  0  0
  7  9  2  0  0  0
 10 12  2  0  0  0
 15 17  2  0  0  0
 20 18  2  0  0  0
 20 19  2  0  0  0
M  CHG  2  15   1  16  -1
M  END
> <rmsd>
0.382898957

$$$$
ZINC01162054


 25 27  0  0  0  0  0  0  0  0999 V2000
    1.6714    2.5919   -1.4324 C   0  0  0  0  0
   -3.6169   -2.5353    0.6254 C   0  0  0  0  0
    0.5259    2.6309   -0.6374 C   0  0  0  0  0
    2.2971    1.3732   -1.6948 C   0  0  0  0  0
   -3.4755   -1.1501    0.7577 C   0  0  0  0  0
   -2.3938   -1.0077   -1.4097 C   0  0  0  0  0
    0.6321    0.2324   -0.3670 C   0  0  0  0  0
   -2.5380   -2.3814   -1.5327 C   0  0  0  0  0
   -3.1420   -3.1408   -0.5288 C   0  0  0  0  0
    0.0063    1.4512   -0.1047 C   0  0  0  0  0
    1.7775    0.1935   -1.1621 C   0  0  0  0  0
   -2.8682   -0.3913   -0.2523 C   0  0  0  0  0
   -3.6865   -5.5425   -0.1448 C   0  0  0  0  0
   -2.1028   -3.2309   -2.6815 C   0  0  0  0  0
   -2.5319   -4.6309   -2.2297 C   0  0  0  0  0
   -3.5769   -6.9067   -0.7843 C   0  0  0  0  0
   -3.1630   -4.5015   -0.8994 N   0  0  0  0  0
   -1.1744    1.4917    0.7154 N   0  0  0  0  0
    2.4143   -1.0468   -1.4305 N   0  0  0  0  0
    3.4430   -1.0594   -2.1490 O   0  0  0  0  0
   -4.2125   -5.4372    0.9633 O   0  0  0  0  0
    1.9313   -2.0968   -0.9416 O   0  0  0  0  0
   -3.7331    1.7773    0.8770 O   0  0  0  0  0
   -2.6487    1.9505   -1.3799 O   0  0  0  0  0
   -2.7056    1.3371   -0.0589 S   0  0  0  0  0
  1  4  1  0  0  0
  2  5  1  0  0  0
  3 10  1  0  0  0
  6 12  1  0  0  0
  7 11  1  0  0  0
  8  9  1  0  0  0
  9 17  1  0  0  0
 10 18  1  0  0  0
 11 19  1  0  0  0
 13 17  1  0  0  0
 14  8  1  0  0  0
 14 15  1  0  0  0
 15 17  1  0  0  0
 16 13  1  0  0  0
 19 20  1  0  0  0
 25 12  1  0  0  0
 25 18  1  0  0  0
  1  3  2  0  0  0
  2  9  2  0  0  0
  4 11  2  0  0  0
  5 12  2  0  0  0
  6  8  2  0  0  0
  7 10  2  0  0  0
 13 21  2  0  0  0
 19 22  2  0  0  0
 25 23  2  0  0  0
 25 24  2  0  0  0
M  CHG  2  19   1  20  -1
M  END
> <rmsd>
0.554190099

$$$$
ZINC32962263


 25 26  0  0  0  0  0  0  0  0999 V2000
   -3.5429   -2.5658    0.5365 C   0  0  0  0  0
   -2.9127   -2.3072   -1.7814 C   0  0  0  0  0
   -0.1349    2.4681   -1.6190 C   0  0  0  0  0
    0.8306    2.4770   -2.6257 C   0  0  0  0  0
   -3.3757   -1.1953    0.7348 C   0  0  0  0  0
   -2.7456   -0.9368   -1.5831 C   0  0  0  0  0
    0.8591    0.4747   -0.6832 C   0  0  0  0  0
   -3.3115   -3.1218   -0.7217 C   0  0  0  0  0
    1.8246    0.4836   -1.6899 C   0  0  0  0  0
   -0.1206    1.4669   -0.6478 C   0  0  0  0  0
    1.8103    1.4848   -2.6611 C   0  0  0  0  0
   -2.9771   -0.3807   -0.3249 C   0  0  0  0  0
   -3.4860   -4.5507   -0.9281 C   0  0  0  0  0
    2.8500   -0.5766   -1.7042 C   0  0  0  0  0
   -3.2325   -5.4566    0.2417 C   0  0  0  0  0
    4.0216    2.2310   -3.5060 C   0  0  0  0  0
    2.5444    0.8061   -4.9329 C   0  0  0  0  0
   -1.1168    1.4576    0.3895 N   0  0  0  0  0
    2.7787    1.5108   -3.6895 N   0  0  0  0  0
    2.6097   -1.6580   -2.3579 O   0  0  0  0  0
   -3.8217   -5.0750   -1.9922 O   0  0  0  0  0
    3.9475   -0.3817   -1.0622 O   0  0  0  0  0
   -3.5924    1.7201    1.0657 O   0  0  0  0  0
   -2.9719    2.0186   -1.3479 O   0  0  0  0  0
   -2.7711    1.3352   -0.0760 S   0  0  0  0  0
  1  8  1  0  0  0
  2  6  1  0  0  0
  3 10  1  0  0  0
  4 11  1  0  0  0
  5 12  1  0  0  0
  7  9  1  0  0  0
  8 13  1  0  0  0
  9 14  1  0  0  0
 10 18  1  0  0  0
 11 19  1  0  0  0
 14 20  1  0  0  0
 15 13  1  0  0  0
 16 19  1  0  0  0
 17 19  1  0  0  0
 25 12  1  0  0  0
 25 18  1  0  0  0
  1  5  2  0  0  0
  2  8  2  0  0  0
  3  4  2  0  0  0
  6 12  2  0  0  0
  7 10  2  0  0  0
  9 11  2  0  0  0
 13 21  2  0  0  0
 14 22  2  0  0  0
 25 23  2  0  0  0
 25 24  2  0  0  0
M  CHG  1  20  -1
M  END
> <rmsd>
0.526353002

$$$$
ZINC32962263


 25 26  0  0  0  0  0  0  0  0999 V2000
   -3.2395   -2.5890    0.4260 C   0  0  0  0  0
   -2.4258   -2.2341   -1.8210 C   0  0  0  0  0
   -0.0680    2.7416   -1.3424 C   0  0  0  0  0
    0.9805    2.8474   -2.2563 C   0  0  0  0  0
   -3.2019   -1.2139    0.6567 C   0  0  0  0  0
   -2.3883   -0.8591   -1.5903 C   0  0  0  0  0
    0.9950    0.8144   -0.3459 C   0  0  0  0  0
   -2.8515   -3.0992   -0.8130 C   0  0  0  0  0
    2.0435    0.9202   -1.2598 C   0  0  0  0  0
   -0.0607    1.7251   -0.3872 C   0  0  0  0  0
    2.0361    1.9367   -2.2150 C   0  0  0  0  0
   -2.7763   -0.3489   -0.3513 C   0  0  0  0  0
   -2.8910   -4.5329   -1.0533 C   0  0  0  0  0
    3.1481   -0.0551   -1.1942 C   0  0  0  0  0
   -2.6717   -5.4396    0.1228 C   0  0  0  0  0
    4.2472    2.8725   -2.8442 C   0  0  0  0  0
    3.0243    1.3647   -4.4188 C   0  0  0  0  0
   -1.1423    1.6159    0.5544 N   0  0  0  0  0
    3.0880    2.0602   -3.1501 N   0  0  0  0  0
    3.0556   -1.1386   -1.8813 O   0  0  0  0  0
   -3.0861   -5.0603   -2.1505 O   0  0  0  0  0
    4.1640    0.2129   -0.4520 O   0  0  0  0  0
   -3.6818    1.6679    1.0047 O   0  0  0  0  0
   -2.8724    2.0637   -1.3380 O   0  0  0  0  0
   -2.7326    1.3725   -0.0620 S   0  0  0  0  0
  1  8  1  0  0  0
  2  6  1  0  0  0
  3 10  1  0  0  0
  4 11  1  0  0  0
  5 12  1  0  0  0
  7  9  1  0  0  0
  8 13  1  0  0  0
  9 14  1  0  0  0
 10 18  1  0  0  0
 11 19  1  0  0  0
 14 20  1  0  0  0
 15 13  1  0  0  0
 16 19  1  0  0  0
 17 19  1  0  0  0
 25 12  1  0  0  0
 25 18  1  0  0  0
  1  5  2  0  0  0
  2  8  2  0  0  0
  3  4  2  0  0  0
  6 12  2  0  0  0
  7 10  2  0  0  0
  9 11  2  0  0  0
 13 21  2  0  0  0
 14 22  2  0  0  0
 25 23  2  0  0  0
 25 24  2  0  0  0
M  CHG  1  20  -1
M  END
> <rmsd>
0.710007489

$$$$
ZINC32962248


 25 26  0  0  0  0  0  0  0  0999 V2000
   -3.2442   -2.5886    0.4334 C   0  0  0  0  0
   -2.4204   -2.2382   -1.8106 C   0  0  0  0  0
   -0.0379    2.7668   -1.2909 C   0  0  0  0  0
    1.0212    2.8834   -2.1910 C   0  0  0  0  0
   -3.2072   -1.2131    0.6618 C   0  0  0  0  0
   -2.3834   -0.8627   -1.5823 C   0  0  0  0  0
    0.9954    0.8063   -0.3289 C   0  0  0  0  0
    2.0545    0.9227   -1.2291 C   0  0  0  0  0
   -2.8508   -3.1011   -0.8028 C   0  0  0  0  0
   -0.0508    1.7283   -0.3597 C   0  0  0  0  0
    2.0674    1.9613   -2.1601 C   0  0  0  0  0
   -2.7768   -0.3500   -0.3460 C   0  0  0  0  0
    3.1487   -0.0649   -1.1748 C   0  0  0  0  0
   -1.4931   -5.1561   -1.3392 C   0  0  0  0  0
   -3.8629   -4.9572   -2.1756 C   0  0  0  0  0
    4.2941    2.8892   -2.7443 C   0  0  0  0  0
    3.0731    1.4310   -4.3664 C   0  0  0  0  0
   -2.8882   -4.5719   -1.0466 C   0  0  0  0  0
   -1.1354    1.6089    0.5610 N   0  0  0  0  0
    3.1302    2.0960   -3.0812 N   0  0  0  0  0
    3.0528   -1.1312   -1.8882 O   0  0  0  0  0
    4.1592    0.1754   -0.4160 O   0  0  0  0  0
   -3.6861    1.6730    0.9979 O   0  0  0  0  0
   -2.8580    2.0602   -1.3395 O   0  0  0  0  0
   -2.7292    1.3954   -0.0570 S   0  0  0  0  0
  1  9  1  0  0  0
  2  6  1  0  0  0
  3 10  1  0  0  0
  4 11  1  0  0  0
  5 12  1  0  0  0
  7  8  1  0  0  0
  8 13  1  0  0  0
 10 19  1  0  0  0
 11 20  1  0  0  0
 13 21  1  0  0  0
 14 18  1  0  0  0
 15 18  1  0  0  0
 16 20  1  0  0  0
 17 20  1  0  0  0
 18  9  1  0  0  0
 25 12  1  0  0  0
 25 19  1  0  0  0
  1  5  2  0  0  0
  2  9  2  0  0  0
  3  4  2  0  0  0
  6 12  2  0  0  0
  7 10  2  0  0  0
  8 11  2  0  0  0
 13 22  2  0  0  0
 25 23  2  0  0  0
 25 24  2  0  0  0
M  CHG  1  21  -1
M  END
> <rmsd>
0.7074489

$$$$
ZINC32962248


 25 26  0  0  0  0  0  0  0  0999 V2000
   -3.5394   -2.5663    0.5394 C   0  0  0  0  0
   -2.9058   -2.3070   -1.7777 C   0  0  0  0  0
   -0.1065    2.5012   -1.5748 C   0  0  0  0  0
    0.8690    2.5242   -2.5715 C   0  0  0  0  0
   -3.3752   -1.1954    0.7376 C   0  0  0  0  0
   -2.7416   -0.9362   -1.5794 C   0  0  0  0  0
    0.8586    0.4767   -0.6766 C   0  0  0  0  0
    1.8341    0.4996   -1.6733 C   0  0  0  0  0
   -3.3046   -3.1221   -0.7183 C   0  0  0  0  0
   -0.1118    1.4776   -0.6273 C   0  0  0  0  0
    1.8393    1.5233   -2.6207 C   0  0  0  0  0
   -2.9763   -0.3803   -0.3217 C   0  0  0  0  0
    2.8493   -0.5701   -1.7025 C   0  0  0  0  0
   -2.1658   -5.2831   -1.3401 C   0  0  0  0  0
   -4.5814   -4.9085   -1.9563 C   0  0  0  0  0
    4.0660    2.2670   -3.4264 C   0  0  0  0  0
    2.5892    0.8908   -4.9006 C   0  0  0  0  0
   -3.4780   -4.5880   -0.9302 C   0  0  0  0  0
   -1.1109    1.4540    0.3923 N   0  0  0  0  0
    2.8179    1.5638   -3.6389 N   0  0  0  0  0
    2.6049   -1.6336   -2.3839 O   0  0  0  0  0
    3.9421   -0.4013   -1.0455 O   0  0  0  0  0
   -3.5966    1.7230    1.0630 O   0  0  0  0  0
   -2.9647    2.0175   -1.3481 O   0  0  0  0  0
   -2.7675    1.3593   -0.0709 S   0  0  0  0  0
  1  9  1  0  0  0
  2  6  1  0  0  0
  3 10  1  0  0  0
  4 11  1  0  0  0
  5 12  1  0  0  0
  7  8  1  0  0  0
  8 13  1  0  0  0
 10 19  1  0  0  0
 11 20  1  0  0  0
 13 21  1  0  0  0
 14 18  1  0  0  0
 15 18  1  0  0  0
 16 20  1  0  0  0
 17 20  1  0  0  0
 18  9  1  0  0  0
 25 12  1  0  0  0
 25 19  1  0  0  0
  1  5  2  0  0  0
  2  9  2  0  0  0
  3  4  2  0  0  0
  6 12  2  0  0  0
  7 10  2  0  0  0
  8 11  2  0  0  0
 13 22  2  0  0  0
 25 23  2  0  0  0
 25 24  2  0  0  0
M  CHG  1  21  -1
M  END
> <rmsd>
0.526562691

$$$$
ZINC33253638


 25 26  0  0  0  0  0  0  0  0999 V2000
   -3.5396   -2.5661    0.5399 C   0  0  0  0  0
   -2.9060   -2.3072   -1.7772 C   0  0  0  0  0
   -0.1071    2.5013   -1.5753 C   0  0  0  0  0
    0.8683    2.5241   -2.5719 C   0  0  0  0  0
   -3.3754   -1.1952    0.7379 C   0  0  0  0  0
   -2.7419   -0.9362   -1.5791 C   0  0  0  0  0
    0.8582    0.4770   -0.6767 C   0  0  0  0  0
    1.8337    0.4997   -1.6735 C   0  0  0  0  0
   -3.3047   -3.1221   -0.7177 C   0  0  0  0  0
   -0.1122    1.4778   -0.6275 C   0  0  0  0  0
    1.8388    1.5233   -2.6211 C   0  0  0  0  0
   -2.9767   -0.3803   -0.3215 C   0  0  0  0  0
    2.8489   -0.5699   -1.7026 C   0  0  0  0  0
   -3.4780   -4.5881   -0.9292 C   0  0  0  0  0
    3.8291    3.7169   -3.1721 C   0  0  0  0  0
    1.8971    1.7866   -5.8712 C   0  0  0  0  0
    4.0653    2.2671   -3.4269 C   0  0  0  0  0
    2.5886    0.8904   -4.9009 C   0  0  0  0  0
   -1.1114    1.4544    0.3921 N   0  0  0  0  0
    2.8173    1.5637   -3.6392 N   0  0  0  0  0
    2.6045   -1.6335   -2.3837 O   0  0  0  0  0
    3.9418   -0.4009   -1.0455 O   0  0  0  0  0
   -3.5971    1.7232    1.0628 O   0  0  0  0  0
   -2.9652    2.0174   -1.3484 O   0  0  0  0  0
   -2.7679    1.3594   -0.0711 S   0  0  0  0  0
  1  9  1  0  0  0
  2  6  1  0  0  0
  3 10  1  0  0  0
  4 11  1  0  0  0
  5 12  1  0  0  0
  7  8  1  0  0  0
  8 13  1  0  0  0
 10 19  1  0  0  0
 11 20  1  0  0  0
 13 21  1  0  0  0
 14  9  1  0  0  0
 15 17  1  0  0  0
 16 18  1  0  0  0
 17 20  1  0  0  0
 18 20  1  0  0  0
 25 12  1  0  0  0
 25 19  1  0  0  0
  1  5  2  0  0  0
  2  9  2  0  0  0
  3  4  2  0  0  0
  6 12  2  0  0  0
  7 10  2  0  0  0
  8 11  2  0  0  0
 13 22  2  0  0  0
 25 23  2  0  0  0
 25 24  2  0  0  0
M  CHG  1  21  -1
M  END
> <rmsd>
0.526112139

$$$$
ZINC33253638


 25 26  0  0  0  0  0  0  0  0999 V2000
   -3.2439   -2.5885    0.4337 C   0  0  0  0  0
   -2.4201   -2.2382   -1.8103 C   0  0  0  0  0
   -0.0385    2.7672   -1.2913 C   0  0  0  0  0
    1.0205    2.8838   -2.1914 C   0  0  0  0  0
   -3.2070   -1.2130    0.6619 C   0  0  0  0  0
   -2.3833   -0.8626   -1.5821 C   0  0  0  0  0
    0.9952    0.8070   -0.3290 C   0  0  0  0  0
    2.0543    0.9235   -1.2292 C   0  0  0  0  0
   -2.8503   -3.1011   -0.8024 C   0  0  0  0  0
   -0.0512    1.7289   -0.3599 C   0  0  0  0  0
    2.0670    1.9620   -2.1605 C   0  0  0  0  0
   -2.7769   -0.3500   -0.3460 C   0  0  0  0  0
    3.1487   -0.0639   -1.1749 C   0  0  0  0  0
   -2.8874   -4.5719   -1.0459 C   0  0  0  0  0
    3.9214    4.3125   -2.4968 C   0  0  0  0  0
    2.4062    2.2896   -5.3874 C   0  0  0  0  0
    4.2934    2.8902   -2.7447 C   0  0  0  0  0
    3.0728    1.4316   -4.3666 C   0  0  0  0  0
   -1.1358    1.6095    0.5608 N   0  0  0  0  0
    3.1297    2.0968   -3.0814 N   0  0  0  0  0
    3.0530   -1.1302   -1.8880 O   0  0  0  0  0
    4.1592    0.1767   -0.4160 O   0  0  0  0  0
   -3.6865    1.6730    0.9977 O   0  0  0  0  0
   -2.8584    2.0602   -1.3399 O   0  0  0  0  0
   -2.7296    1.3956   -0.0572 S   0  0  0  0  0
  1  9  1  0  0  0
  2  6  1  0  0  0
  3 10  1  0  0  0
  4 11  1  0  0  0
  5 12  1  0  0  0
  7  8  1  0  0  0
  8 13  1  0  0  0
 10 19  1  0  0  0
 11 20  1  0  0  0
 13 21  1  0  0  0
 14  9  1  0  0  0
 15 17  1  0  0  0
 16 18  1  0  0  0
 17 20  1  0  0  0
 18 20  1  0  0  0
 25 12  1  0  0  0
 25 19  1  0  0  0
  1  5  2  0  0  0
  2  9  2  0  0  0
  3  4  2  0  0  0
  6 12  2  0  0  0
  7 10  2  0  0  0
  8 11  2  0  0  0
 13 22  2  0  0  0
 25 23  2  0  0  0
 25 24  2  0  0  0
M  CHG  1  21  -1
M  END
> <rmsd>
0.707293332

$$$$
ZINC29880515


 25 26  0  0  0  0  0  0  0  0999 V2000
   -3.6214   -2.7500    0.5003 C   0  0  0  0  0
   -2.3268   -2.8075   -0.0154 C   0  0  0  0  0
   -4.5545   -1.8733   -0.0534 C   0  0  0  0  0
   -2.8980   -1.1114   -1.6384 C   0  0  0  0  0
   -1.9650   -1.9881   -1.0847 C   0  0  0  0  0
   -4.1927   -1.0540   -1.1227 C   0  0  0  0  0
   -0.6250   -2.0468   -1.6166 C   0  0  0  0  0
    1.4826   -1.6366   -1.9305 C   0  0  0  0  0
   -0.3233    1.0078   -0.5563 C   0  0  0  0  0
   -3.1650    2.7147    0.6143 C   0  0  0  0  0
   -5.1901   -0.1154   -1.7131 C   0  0  0  0  0
   -1.3198    3.7488    2.7173 C   0  0  0  0  0
    0.4134    4.2548    0.9752 C   0  0  0  0  0
   -5.2813    3.7740    0.5761 C   0  0  0  0  0
    0.3396   -0.2785   -0.1126 C   0  0  0  0  0
   -1.6725    2.8882    0.3552 C   0  0  0  0  0
   -1.0788    4.0150    1.2284 C   0  0  0  0  0
   -0.2095   -2.8336   -2.5835 N   0  0  0  0  0
    1.1315   -2.5725   -2.7831 N   0  0  0  0  0
    0.4076   -1.2760   -1.1761 N   0  0  0  0  0
   -0.9594    1.6434    0.5020 N   0  0  0  0  0
   -0.2940    1.4204   -1.7126 O   0  0  0  0  0
   -3.6510    1.6584    1.0057 O   0  0  0  0  0
   -3.8687    3.8534    0.3593 O   0  0  0  0  0
    3.0331   -0.9649   -1.7769 S   0  0  0  0  0
  1  2  1  0  0  0
  3  6  1  0  0  0
  4  5  1  0  0  0
  5  7  1  0  0  0
  7 20  1  0  0  0
  8 19  1  0  0  0
  8 20  1  0  0  0
  9 21  1  0  0  0
 10 24  1  0  0  0
 11  6  1  0  0  0
 12 17  1  0  0  0
 13 17  1  0  0  0
 14 24  1  0  0  0
 15  9  1  0  0  0
 15 20  1  0  0  0
 16 10  1  0  0  0
 16 17  1  0  0  0
 16 21  1  0  0  0
 18 19  1  0  0  0
  1  3  2  0  0  0
  2  5  2  0  0  0
  4  6  2  0  0  0
  7 18  2  0  0  0
  8 25  2  0  0  0
  9 22  2  0  0  0
 10 23  2  0  0  0
M  CHG  1  25  -1
M  END
> <rmsd>
0.527766526

$$$$
ZINC29880515


 25 26  0  0  0  0  0  0  0  0999 V2000
   -4.1934   -1.0567   -1.1259 C   0  0  0  0  0
   -2.8976   -1.1130   -1.6389 C   0  0  0  0  0
   -4.5565   -1.8761   -0.0570 C   0  0  0  0  0
   -2.3279   -2.8080   -0.0143 C   0  0  0  0  0
   -1.9648   -1.9886   -1.0831 C   0  0  0  0  0
   -3.6238   -2.7517    0.4988 C   0  0  0  0  0
   -0.6250   -2.0473   -1.6152 C   0  0  0  0  0
    1.4826   -1.6370   -1.9298 C   0  0  0  0  0
   -0.3235    1.0078   -0.5565 C   0  0  0  0  0
   -3.1652    2.7149    0.6139 C   0  0  0  0  0
   -4.0130   -3.6290    1.6403 C   0  0  0  0  0
   -1.3196    3.7503    2.7160 C   0  0  0  0  0
    0.4131    4.2557    0.9733 C   0  0  0  0  0
   -5.2817    3.7739    0.5757 C   0  0  0  0  0
    0.3397   -0.2782   -0.1122 C   0  0  0  0  0
   -1.6728    2.8885    0.3544 C   0  0  0  0  0
   -1.0790    4.0159    1.2269 C   0  0  0  0  0
   -0.2095   -2.8345   -2.5818 N   0  0  0  0  0
    1.1314   -2.5734   -2.7818 N   0  0  0  0  0
    0.4077   -1.2761   -1.1753 N   0  0  0  0  0
   -0.9594    1.6439    0.5017 N   0  0  0  0  0
   -0.2944    1.4199   -1.7130 O   0  0  0  0  0
   -3.6509    1.6587    1.0060 O   0  0  0  0  0
   -3.8690    3.8534    0.3585 O   0  0  0  0  0
    3.0330   -0.9649   -1.7768 S   0  0  0  0  0
  1  2  1  0  0  0
  3  6  1  0  0  0
  4  5  1  0  0  0
  5  7  1  0  0  0
  7 20  1  0  0  0
  8 19  1  0  0  0
  8 20  1  0  0  0
  9 21  1  0  0  0
 10 24  1  0  0  0
 11  6  1  0  0  0
 12 17  1  0  0  0
 13 17  1  0  0  0
 14 24  1  0  0  0
 15  9  1  0  0  0
 15 20  1  0  0  0
 16 10  1  0  0  0
 16 17  1  0  0  0
 16 21  1  0  0  0
 18 19  1  0  0  0
  1  3  2  0  0  0
  2  5  2  0  0  0
  4  6  2  0  0  0
  7 18  2  0  0  0
  8 25  2  0  0  0
  9 22  2  0  0  0
 10 23  2  0  0  0
M  CHG  1  25  -1
M  END
> <rmsd>
0.528174222

$$$$
ZINC13582124


 25 27  0  0  0  0  0  0  0  0999 V2000
    1.6664    2.5897   -1.4402 C   0  0  0  0  0
   -3.6044   -2.5308    0.6146 C   0  0  0  0  0
    0.5221    2.6302   -0.6437 C   0  0  0  0  0
    2.2928    1.3707   -1.7000 C   0  0  0  0  0
   -3.4724   -1.1492    0.7600 C   0  0  0  0  0
   -2.3962   -1.0138   -1.4029 C   0  0  0  0  0
    0.6302    0.2326   -0.3667 C   0  0  0  0  0
   -3.1302   -3.1500   -0.5426 C   0  0  0  0  0
   -2.5294   -2.3956   -1.5458 C   0  0  0  0  0
    0.0040    1.4516   -0.1069 C   0  0  0  0  0
    1.7746    0.1921   -1.1632 C   0  0  0  0  0
   -2.8696   -0.3924   -0.2465 C   0  0  0  0  0
   -2.8106   -5.2092   -1.8175 C   0  0  0  0  0
   -2.1590   -4.3908   -2.9062 C   0  0  0  0  0
   -3.2561   -4.5347   -0.7019 N   0  0  0  0  0
   -2.0594   -3.0321   -2.7003 N   0  0  0  0  0
   -1.1756    1.4938    0.7146 N   0  0  0  0  0
    2.4119   -1.0486   -1.4288 N   0  0  0  0  0
    3.4396   -1.0625   -2.1488 O   0  0  0  0  0
   -2.9029   -6.4180   -1.9924 O   0  0  0  0  0
   -1.7617   -4.9822   -3.9022 O   0  0  0  0  0
    1.9304   -2.0974   -0.9363 O   0  0  0  0  0
   -3.7343    1.7784    0.8785 O   0  0  0  0  0
   -2.6527    1.9466   -1.3801 O   0  0  0  0  0
   -2.7077    1.3359   -0.0576 S   0  0  0  0  0
  1  3  1  0  0  0
  2  8  1  0  0  0
  4 11  1  0  0  0
  5 12  1  0  0  0
  6  9  1  0  0  0
  7 10  1  0  0  0
  8 15  1  0  0  0
  9 16  1  0  0  0
 10 17  1  0  0  0
 11 18  1  0  0  0
 13 14  1  0  0  0
 13 15  1  0  0  0
 14 16  1  0  0  0
 18 19  1  0  0  0
 25 12  1  0  0  0
 25 17  1  0  0  0
  1  4  2  0  0  0
  2  5  2  0  0  0
  3 10  2  0  0  0
  6 12  2  0  0  0
  7 11  2  0  0  0
  8  9  2  0  0  0
 13 20  2  0  0  0
 14 21  2  0  0  0
 18 22  2  0  0  0
 25 23  2  0  0  0
 25 24  2  0  0  0
M  CHG  2  18   1  19  -1
M  END
> <rmsd>
0.558743536

$$$$
ZINC77285513


 25 27  0  0  0  0  0  0  0  0999 V2000
   -2.8283   -3.0169   -0.5943 C   0  0  0  0  0
   -3.0783   -2.2524   -1.7339 C   0  0  0  0  0
   -2.7100   -2.3967    0.6495 C   0  0  0  0  0
   -3.2100   -0.8677   -1.6297 C   0  0  0  0  0
   -2.8417   -1.0120    0.7537 C   0  0  0  0  0
   -3.0918   -0.2475   -0.3859 C   0  0  0  0  0
    2.9847   -0.0015    0.2174 C   0  0  0  0  0
    3.3055   -0.7715    1.2829 C   0  0  0  0  0
    1.2940    1.7142   -0.5554 C   0  0  0  0  0
    3.6869   -0.2229   -1.1170 C   0  0  0  0  0
   -1.8951    1.9619   -0.4362 C   0  0  0  0  0
    2.5730   -0.6896    2.6158 C   0  0  0  0  0
    0.3592    2.1183    0.6166 C   0  0  0  0  0
    1.3633    1.3636    1.5184 C   0  0  0  0  0
    4.4287   -1.7788    1.3030 C   0  0  0  0  0
   -3.2341    1.2525   -0.2724 C   0  0  0  0  0
    1.9942    0.9255    0.2861 N   0  0  0  0  0
   -3.7998    1.6451    0.9950 N   0  0  0  0  0
   -0.9871    1.5594    0.5210 N   0  0  0  0  0
    3.1214   -1.0513   -1.8775 O   0  0  0  0  0
    1.3504    1.9321   -1.7429 O   0  0  0  0  0
    4.7369    0.4530   -1.2768 O   0  0  0  0  0
   -1.6931    2.8129   -1.3002 O   0  0  0  0  0
    0.4329    0.3938    3.8314 O   0  0  0  0  0
    0.8351   -0.1276    2.4837 S   0  0  0  0  0
  1  2  1  0  0  0
  3  5  1  0  0  0
  4  6  1  0  0  0
  7 10  1  0  0  0
  7 17  1  0  0  0
  9 17  1  0  0  0
 10 20  1  0  0  0
 11 19  1  0  0  0
 12  8  1  0  0  0
 12 25  1  0  0  0
 13  9  1  0  0  0
 13 14  1  0  0  0
 13 19  1  0  0  0
 14 17  1  0  0  0
 14 25  1  0  0  0
 15  8  1  0  0  0
 16  6  1  0  0  0
 16 11  1  0  0  0
 16 18  1  0  0  0
  1  3  2  0  0  0
  2  4  2  0  0  0
  5  6  2  0  0  0
  7  8  2  0  0  0
  9 21  2  0  0  0
 10 22  2  0  0  0
 11 23  2  0  0  0
 25 24  2  0  0  0
M  CHG  1  20  -1
M  END
> <rmsd>
0.56997776

$$$$
ZINC77285513


 25 27  0  0  0  0  0  0  0  0999 V2000
   -3.3026   -3.0295   -0.4759 C   0  0  0  0  0
   -3.5715   -2.2682   -1.6134 C   0  0  0  0  0
   -3.0445   -2.3983    0.7408 C   0  0  0  0  0
   -3.5821   -0.8756   -1.5341 C   0  0  0  0  0
   -3.0552   -1.0057    0.8202 C   0  0  0  0  0
   -3.3240   -0.2444   -0.3173 C   0  0  0  0  0
    2.7800   -0.4922   -0.1509 C   0  0  0  0  0
    3.1133   -1.2662    0.9078 C   0  0  0  0  0
    1.1831    1.3432   -0.8441 C   0  0  0  0  0
    3.3634   -0.7959   -1.5257 C   0  0  0  0  0
   -1.9582    1.8568   -0.5060 C   0  0  0  0  0
    2.4884   -1.0991    2.2867 C   0  0  0  0  0
    0.3717    1.8451    0.3808 C   0  0  0  0  0
    1.3736    1.0266    1.2276 C   0  0  0  0  0
    4.1493   -2.3627    0.8732 C   0  0  0  0  0
   -3.3351    1.2641   -0.2307 C   0  0  0  0  0
    1.8759    0.5148   -0.0351 N   0  0  0  0  0
   -3.7737    1.7257    1.0635 N   0  0  0  0  0
   -1.0190    1.3982    0.3942 N   0  0  0  0  0
    2.6787   -1.5886   -2.2239 O   0  0  0  0  0
    1.1709    1.5335   -2.0376 O   0  0  0  0  0
    4.4506   -0.2125   -1.7758 O   0  0  0  0  0
   -1.7506    2.6718   -1.4027 O   0  0  0  0  0
    0.5373    0.1805    3.6236 O   0  0  0  0  0
    0.7971   -0.3974    2.2640 S   0  0  0  0  0
  1  2  1  0  0  0
  3  5  1  0  0  0
  4  6  1  0  0  0
  7 10  1  0  0  0
  7 17  1  0  0  0
  9 17  1  0  0  0
 10 20  1  0  0  0
 11 19  1  0  0  0
 12  8  1  0  0  0
 12 25  1  0  0  0
 13  9  1  0  0  0
 13 14  1  0  0  0
 13 19  1  0  0  0
 14 17  1  0  0  0
 14 25  1  0  0  0
 15  8  1  0  0  0
 16  6  1  0  0  0
 16 11  1  0  0  0
 16 18  1  0  0  0
  1  3  2  0  0  0
  2  4  2  0  0  0
  5  6  2  0  0  0
  7  8  2  0  0  0
  9 21  2  0  0  0
 10 22  2  0  0  0
 11 23  2  0  0  0
 25 24  2  0  0  0
M  CHG  1  20  -1
M  END
> <rmsd>
0.316977322

$$$$
ZINC64843453


 25 26  0  0  0  0  0  0  0  0999 V2000
   -3.5716   -2.5598    0.5541 C   0  0  0  0  0
   -2.9197   -2.3212   -1.7600 C   0  0  0  0  0
   -3.3965   -1.1893    0.7449 C   0  0  0  0  0
   -2.7446   -0.9505   -1.5692 C   0  0  0  0  0
    0.8693    0.4556   -0.6673 C   0  0  0  0  0
   -0.0892    2.4180   -1.6093 C   0  0  0  0  0
   -3.3332   -3.1258   -0.6983 C   0  0  0  0  0
    1.8279    0.4772   -1.6742 C   0  0  0  0  0
   -0.1109    1.4409   -0.6271 C   0  0  0  0  0
   -2.9830   -0.3845   -0.3168 C   0  0  0  0  0
    1.7628    1.4972   -2.6097 C   0  0  0  0  0
   -3.5161   -4.5548   -0.8969 C   0  0  0  0  0
    2.8653   -0.5677   -1.7147 C   0  0  0  0  0
   -3.2790   -5.4546    0.2811 C   0  0  0  0  0
    2.4970    0.8341   -4.8859 C   0  0  0  0  0
    3.9694    2.2583   -3.4535 C   0  0  0  0  0
    0.8258    2.4717   -2.6031 N   0  0  0  0  0
   -1.1160    1.4455    0.4015 N   0  0  0  0  0
    2.7368    1.5258   -3.6392 N   0  0  0  0  0
    2.6329   -1.6446   -2.3806 O   0  0  0  0  0
   -3.8464   -5.0838   -1.9604 O   0  0  0  0  0
    3.9689   -0.3686   -1.0825 O   0  0  0  0  0
   -3.5954    1.7297    1.0546 O   0  0  0  0  0
   -2.9521    2.0077   -1.3555 O   0  0  0  0  0
   -2.7671    1.3314   -0.0774 S   0  0  0  0  0
  1  7  1  0  0  0
  2  4  1  0  0  0
  3 10  1  0  0  0
  5  9  1  0  0  0
  6 17  1  0  0  0
  7 12  1  0  0  0
  8 11  1  0  0  0
  8 13  1  0  0  0
  9 18  1  0  0  0
 11 19  1  0  0  0
 13 20  1  0  0  0
 14 12  1  0  0  0
 15 19  1  0  0  0
 16 19  1  0  0  0
 25 10  1  0  0  0
 25 18  1  0  0  0
  1  3  2  0  0  0
  2  7  2  0  0  0
  4 10  2  0  0  0
  5  8  2  0  0  0
  6  9  2  0  0  0
 11 17  2  0  0  0
 12 21  2  0  0  0
 13 22  2  0  0  0
 25 23  2  0  0  0
 25 24  2  0  0  0
M  CHG  1  20  -1
M  END
> <rmsd>
0.511883259

$$$$
ZINC64843453


 25 26  0  0  0  0  0  0  0  0999 V2000
   -3.2721   -2.5852    0.4431 C   0  0  0  0  0
   -2.4352   -2.2499   -1.7984 C   0  0  0  0  0
   -3.2253   -1.2092    0.6665 C   0  0  0  0  0
   -2.3886   -0.8738   -1.5751 C   0  0  0  0  0
    1.0048    0.7942   -0.3284 C   0  0  0  0  0
   -0.0191    2.6934   -1.3292 C   0  0  0  0  0
   -2.8770   -3.1056   -0.7893 C   0  0  0  0  0
    2.0455    0.9112   -1.2429 C   0  0  0  0  0
   -0.0510    1.6983   -0.3656 C   0  0  0  0  0
   -2.7836   -0.3534   -0.3426 C   0  0  0  0  0
    1.9835    1.9414   -2.1675 C   0  0  0  0  0
   -2.9260   -4.5403   -1.0219 C   0  0  0  0  0
    3.1627   -0.0477   -1.2015 C   0  0  0  0  0
   -2.7248   -5.4419    0.1614 C   0  0  0  0  0
    2.9709    1.3836   -4.3752 C   0  0  0  0  0
    4.1890    2.8905   -2.7961 C   0  0  0  0  0
    0.9746    2.8388   -2.2344 N   0  0  0  0  0
   -1.1419    1.6033    0.5667 N   0  0  0  0  0
    3.0409    2.0670   -3.1031 N   0  0  0  0  0
    3.0785   -1.1261   -1.8995 O   0  0  0  0  0
   -3.1155   -5.0723   -2.1177 O   0  0  0  0  0
    4.1852    0.2250   -0.4685 O   0  0  0  0  0
   -3.6849    1.6783    0.9936 O   0  0  0  0  0
   -2.8511    2.0541   -1.3438 O   0  0  0  0  0
   -2.7286    1.3692   -0.0628 S   0  0  0  0  0
  1  7  1  0  0  0
  2  4  1  0  0  0
  3 10  1  0  0  0
  5  9  1  0  0  0
  6 17  1  0  0  0
  7 12  1  0  0  0
  8 11  1  0  0  0
  8 13  1  0  0  0
  9 18  1  0  0  0
 11 19  1  0  0  0
 13 20  1  0  0  0
 14 12  1  0  0  0
 15 19  1  0  0  0
 16 19  1  0  0  0
 25 10  1  0  0  0
 25 18  1  0  0  0
  1  3  2  0  0  0
  2  7  2  0  0  0
  4 10  2  0  0  0
  5  8  2  0  0  0
  6  9  2  0  0  0
 11 17  2  0  0  0
 12 21  2  0  0  0
 13 22  2  0  0  0
 25 23  2  0  0  0
 25 24  2  0  0  0
M  CHG  1  20  -1
M  END
> <rmsd>
0.694077492

$$$$
ZINC33943584


 25 27  0  0  0  0  0  0  0  0999 V2000
   -4.8407   -0.7686   -1.0025 C   0  0  0  0  0
   -2.8076   -1.2170    0.2232 C   0  0  0  0  0
   -5.0566   -2.1392   -1.1458 C   0  0  0  0  0
   -3.0236   -2.5876    0.0799 C   0  0  0  0  0
   -3.7162   -0.3075   -0.3181 C   0  0  0  0  0
   -4.1481   -3.0487   -0.6046 C   0  0  0  0  0
    3.1938    0.2491   -0.1768 C   0  0  0  0  0
    4.0250    0.5051    0.8610 C   0  0  0  0  0
    0.9709    0.9848   -1.1437 C   0  0  0  0  0
    3.6678   -0.6097   -1.3429 C   0  0  0  0  0
   -2.1491    1.6061   -0.7635 C   0  0  0  0  0
    3.6815    1.4696    1.9963 C   0  0  0  0  0
    0.2435    1.9309   -0.1431 C   0  0  0  0  0
    1.2891    1.4394    0.8823 C   0  0  0  0  0
    5.3841   -0.1264    1.0388 C   0  0  0  0  0
   -3.4825    1.1772   -0.1627 C   0  0  0  0  0
    1.9603    0.8140   -0.2414 N   0  0  0  0  0
   -3.5046    1.5836    1.2211 N   0  0  0  0  0
   -1.1286    1.5332    0.1617 N   0  0  0  0  0
    4.6697   -0.1569   -1.9562 O   0  0  0  0  0
    0.7947    0.6045   -2.2772 O   0  0  0  0  0
    2.9931   -1.6552   -1.5343 O   0  0  0  0  0
   -2.0366    2.0015   -1.9222 O   0  0  0  0  0
   -4.3602   -4.3858   -0.7441 O   0  0  0  0  0
    2.3865    2.6889    1.5838 S   0  0  0  0  0
  1  5  1  0  0  0
  2  4  1  0  0  0
  3  6  1  0  0  0
  6 24  1  0  0  0
  7 10  1  0  0  0
  7 17  1  0  0  0
  9 17  1  0  0  0
 10 20  1  0  0  0
 11 19  1  0  0  0
 12  8  1  0  0  0
 12 25  1  0  0  0
 13  9  1  0  0  0
 13 14  1  0  0  0
 13 19  1  0  0  0
 14 17  1  0  0  0
 14 25  1  0  0  0
 15  8  1  0  0  0
 16  5  1  0  0  0
 16 11  1  0  0  0
 16 18  1  0  0  0
  1  3  2  0  0  0
  2  5  2  0  0  0
  4  6  2  0  0  0
  7  8  2  0  0  0
  9 21  2  0  0  0
 10 22  2  0  0  0
 11 23  2  0  0  0
M  CHG  1  20  -1
M  END
> <rmsd>
0.401006848

$$$$
ZINC30528273


 27 29  0  0  0  0  0  0  0  0999 V2000
    5.6147   -0.6464    2.3414 C   0  0  0  0  0
    6.4381   -1.1434    1.3311 C   0  0  0  0  0
   -5.3808   -2.1724   -0.4378 C   0  0  0  0  0
    4.5020    0.1292    2.0158 C   0  0  0  0  0
   -4.4793   -3.1212   -0.9202 C   0  0  0  0  0
   -4.9402   -1.1644    0.4198 C   0  0  0  0  0
    6.1488   -0.8648   -0.0047 C   0  0  0  0  0
   -2.2569    3.0212    0.0023 C   0  0  0  0  0
   -2.6966   -2.0543    0.3130 C   0  0  0  0  0
   -3.6571    3.0373    0.1473 C   0  0  0  0  0
    4.2126    0.4078    0.6801 C   0  0  0  0  0
   -3.1372   -3.0622   -0.5448 C   0  0  0  0  0
   -3.5981   -1.1054    0.7953 C   0  0  0  0  0
    5.0360   -0.0892   -0.3302 C   0  0  0  0  0
   -1.8645    1.8427    0.5887 C   0  0  0  0  0
    3.0394    1.2222    0.3840 C   0  0  0  0  0
    1.7680    0.8947    0.6979 C   0  0  0  0  0
    0.6368    1.8030    0.3366 C   0  0  0  0  0
   -2.1741   -4.0779   -1.0595 C   0  0  0  0  0
   -3.1230   -0.0176    1.7202 C   0  0  0  0  0
   -4.1229    1.9549    0.7763 N   0  0  0  0  0
   -3.0091    1.2476    1.0316 N   0  0  0  0  0
   -0.5780    1.2732    0.7522 N   0  0  0  0  0
    4.7709    0.1784   -1.7033 N   0  0  0  0  0
    4.0409   -0.6135   -2.3432 O   0  0  0  0  0
    0.8319    2.8618   -0.2486 O   0  0  0  0  0
    5.2755    1.1979   -2.2286 O   0  0  0  0  0
  1  2  1  0  0  0
  3  6  1  0  0  0
  4 11  1  0  0  0
  5 12  1  0  0  0
  7 14  1  0  0  0
  8 10  1  0  0  0
  9 13  1  0  0  0
 11 16  1  0  0  0
 14 24  1  0  0  0
 15 22  1  0  0  0
 15 23  1  0  0  0
 17 18  1  0  0  0
 18 23  1  0  0  0
 19 12  1  0  0  0
 20 13  1  0  0  0
 20 22  1  0  0  0
 22 21  1  0  0  0
 24 25  1  0  0  0
  1  4  2  0  0  0
  2  7  2  0  0  0
  3  5  2  0  0  0
  6 13  2  0  0  0
  8 15  2  0  0  0
  9 12  2  0  0  0
 10 21  2  0  0  0
 11 14  2  0  0  0
 16 17  2  0  0  0
 18 26  2  0  0  0
 24 27  2  0  0  0
M  CHG  2  24   1  25  -1
M  END
> <rmsd>
0.565899789

$$$$
ZINC30528273


 27 29  0  0  0  0  0  0  0  0999 V2000
    5.6138   -0.6474    2.3409 C   0  0  0  0  0
    6.4372   -1.1443    1.3306 C   0  0  0  0  0
   -3.1373   -3.0627   -0.5445 C   0  0  0  0  0
    4.5011    0.1283    2.0154 C   0  0  0  0  0
   -4.4794   -3.1224   -0.9200 C   0  0  0  0  0
   -2.6971   -2.0541    0.3127 C   0  0  0  0  0
    6.1479   -0.8655   -0.0052 C   0  0  0  0  0
   -2.2574    3.0214    0.0021 C   0  0  0  0  0
   -4.9411   -1.1650    0.4189 C   0  0  0  0  0
   -3.6576    3.0376    0.1471 C   0  0  0  0  0
    4.2119    0.4072    0.6797 C   0  0  0  0  0
   -5.3812   -2.1736   -0.4383 C   0  0  0  0  0
   -3.5990   -1.1052    0.7944 C   0  0  0  0  0
    5.0353   -0.0897   -0.3306 C   0  0  0  0  0
   -1.8651    1.8427    0.5884 C   0  0  0  0  0
    3.0387    1.2218    0.3837 C   0  0  0  0  0
    1.7673    0.8943    0.6975 C   0  0  0  0  0
    0.6362    1.8028    0.3363 C   0  0  0  0  0
   -6.8158   -2.2368   -0.8413 C   0  0  0  0  0
   -3.1238   -0.0177    1.7195 C   0  0  0  0  0
   -4.1235    1.9551    0.7759 N   0  0  0  0  0
   -3.0098    1.2477    1.0311 N   0  0  0  0  0
   -0.5786    1.2730    0.7518 N   0  0  0  0  0
    4.7702    0.1782   -1.7036 N   0  0  0  0  0
    4.0401   -0.6136   -2.3438 O   0  0  0  0  0
    0.8314    2.8617   -0.2487 O   0  0  0  0  0
    5.2750    1.1977   -2.2288 O   0  0  0  0  0
  1  2  1  0  0  0
  3  6  1  0  0  0
  4 11  1  0  0  0
  5 12  1  0  0  0
  7 14  1  0  0  0
  8 10  1  0  0  0
  9 13  1  0  0  0
 11 16  1  0  0  0
 14 24  1  0  0  0
 15 22  1  0  0  0
 15 23  1  0  0  0
 17 18  1  0  0  0
 18 23  1  0  0  0
 19 12  1  0  0  0
 20 13  1  0  0  0
 20 22  1  0  0  0
 22 21  1  0  0  0
 24 25  1  0  0  0
  1  4  2  0  0  0
  2  7  2  0  0  0
  3  5  2  0  0  0
  6 13  2  0  0  0
  8 15  2  0  0  0
  9 12  2  0  0  0
 10 21  2  0  0  0
 11 14  2  0  0  0
 16 17  2  0  0  0
 18 26  2  0  0  0
 24 27  2  0  0  0
M  CHG  2  24   1  25  -1
M  END
> <rmsd>
0.566043735

$$$$
ZINC44045777


 27 29  0  0  0  0  0  0  0  0999 V2000
   -4.4799   -3.1220   -0.9198 C   0  0  0  0  0
    5.6162   -0.6428    2.3390 C   0  0  0  0  0
   -5.3817   -2.1729   -0.4384 C   0  0  0  0  0
   -3.1380   -3.0628   -0.5434 C   0  0  0  0  0
    6.4394   -1.1396    1.3285 C   0  0  0  0  0
    4.5029    0.1322    2.0139 C   0  0  0  0  0
   -4.9416   -1.1646    0.4190 C   0  0  0  0  0
   -2.6980   -2.0545    0.3140 C   0  0  0  0  0
    6.1493   -0.8614   -0.0071 C   0  0  0  0  0
   -2.2563    3.0204    0.0022 C   0  0  0  0  0
    4.2128    0.4103    0.6781 C   0  0  0  0  0
   -3.5997   -1.1054    0.7953 C   0  0  0  0  0
    5.0360   -0.0864   -0.3324 C   0  0  0  0  0
   -3.6566    3.0376    0.1461 C   0  0  0  0  0
   -1.8652    1.8418    0.5892 C   0  0  0  0  0
    3.0390    1.2240    0.3824 C   0  0  0  0  0
    1.7679    0.8958    0.6969 C   0  0  0  0  0
    0.6360    1.8034    0.3359 C   0  0  0  0  0
   -4.5917    4.0805   -0.3093 C   0  0  0  0  0
   -3.1250   -0.0174    1.7202 C   0  0  0  0  0
   -4.1237    1.9557    0.7750 N   0  0  0  0  0
   -3.0106    1.2477    1.0314 N   0  0  0  0  0
   -0.5783    1.2730    0.7522 N   0  0  0  0  0
    4.7702    0.1808   -1.7053 N   0  0  0  0  0
    4.0402   -0.6118   -2.3448 O   0  0  0  0  0
    0.8303    2.8621   -0.2495 O   0  0  0  0  0
    5.2740    1.2004   -2.2311 O   0  0  0  0  0
  1  3  1  0  0  0
  2  5  1  0  0  0
  4  8  1  0  0  0
  6 11  1  0  0  0
  7 12  1  0  0  0
  9 13  1  0  0  0
 10 14  1  0  0  0
 11 16  1  0  0  0
 13 24  1  0  0  0
 15 22  1  0  0  0
 15 23  1  0  0  0
 17 18  1  0  0  0
 18 23  1  0  0  0
 19 14  1  0  0  0
 20 12  1  0  0  0
 20 22  1  0  0  0
 22 21  1  0  0  0
 24 25  1  0  0  0
  1  4  2  0  0  0
  2  6  2  0  0  0
  3  7  2  0  0  0
  5  9  2  0  0  0
  8 12  2  0  0  0
 10 15  2  0  0  0
 11 13  2  0  0  0
 14 21  2  0  0  0
 16 17  2  0  0  0
 18 26  2  0  0  0
 24 27  2  0  0  0
M  CHG  2  24   1  25  -1
M  END
> <rmsd>
0.566692233

$$$$
ZINC35397724


 25 26  0  0  0  0  0  0  0  0999 V2000
   -3.2697   -2.5866    0.4418 C   0  0  0  0  0
   -2.4304   -2.2484   -1.7983 C   0  0  0  0  0
   -3.2259   -1.2106    0.6660 C   0  0  0  0  0
   -2.3866   -0.8724   -1.5742 C   0  0  0  0  0
    1.0042    0.7936   -0.3278 C   0  0  0  0  0
   -0.0195    2.6929   -1.3286 C   0  0  0  0  0
    2.0449    0.9106   -1.2424 C   0  0  0  0  0
   -2.8719   -3.1056   -0.7903 C   0  0  0  0  0
   -0.0514    1.6978   -0.3650 C   0  0  0  0  0
   -2.7844   -0.3535   -0.3419 C   0  0  0  0  0
    1.9829    1.9407   -2.1669 C   0  0  0  0  0
    3.1621   -0.0486   -1.2010 C   0  0  0  0  0
   -1.5232   -5.1702   -1.3119 C   0  0  0  0  0
   -3.8868   -4.9601   -2.1633 C   0  0  0  0  0
    2.9703    1.3826   -4.3747 C   0  0  0  0  0
    4.1886    2.8895   -2.7957 C   0  0  0  0  0
   -2.9166   -4.5769   -1.0297 C   0  0  0  0  0
    0.9741    2.8381   -2.2338 N   0  0  0  0  0
   -1.1423    1.6030    0.5673 N   0  0  0  0  0
    3.0403    2.0661   -3.1026 N   0  0  0  0  0
    3.0777   -1.1271   -1.8989 O   0  0  0  0  0
    4.1846    0.2240   -0.4680 O   0  0  0  0  0
   -3.6852    1.6784    0.9943 O   0  0  0  0  0
   -2.8515    2.0541   -1.3430 O   0  0  0  0  0
   -2.7290    1.3690   -0.0620 S   0  0  0  0  0
  1  8  1  0  0  0
  2  4  1  0  0  0
  3 10  1  0  0  0
  5  9  1  0  0  0
  6 18  1  0  0  0
  7 11  1  0  0  0
  7 12  1  0  0  0
  9 19  1  0  0  0
 11 20  1  0  0  0
 12 21  1  0  0  0
 13 17  1  0  0  0
 14 17  1  0  0  0
 15 20  1  0  0  0
 16 20  1  0  0  0
 17  8  1  0  0  0
 25 10  1  0  0  0
 25 19  1  0  0  0
  1  3  2  0  0  0
  2  8  2  0  0  0
  4 10  2  0  0  0
  5  7  2  0  0  0
  6  9  2  0  0  0
 11 18  2  0  0  0
 12 22  2  0  0  0
 25 23  2  0  0  0
 25 24  2  0  0  0
M  CHG  1  21  -1
M  END
> <rmsd>
0.695621669

$$$$
ZINC35397724


 25 26  0  0  0  0  0  0  0  0999 V2000
   -3.5700   -2.5614    0.5530 C   0  0  0  0  0
   -2.9151   -2.3203   -1.7600 C   0  0  0  0  0
   -3.3975   -1.1906    0.7448 C   0  0  0  0  0
   -2.7427   -0.9495   -1.5683 C   0  0  0  0  0
    0.8687    0.4545   -0.6665 C   0  0  0  0  0
   -0.0893    2.4169   -1.6087 C   0  0  0  0  0
    1.8273    0.4758   -1.6734 C   0  0  0  0  0
   -3.3287   -3.1263   -0.6993 C   0  0  0  0  0
   -0.1113    1.4400   -0.6264 C   0  0  0  0  0
   -2.9838   -0.3846   -0.3159 C   0  0  0  0  0
    1.7624    1.4957   -2.6090 C   0  0  0  0  0
    2.8645   -0.5694   -1.7138 C   0  0  0  0  0
   -2.2004   -5.2991   -1.2990 C   0  0  0  0  0
   -4.6080   -4.9107   -1.9377 C   0  0  0  0  0
    2.4965    0.8319   -4.8852 C   0  0  0  0  0
    3.9692    2.2561   -3.4530 C   0  0  0  0  0
   -3.5110   -4.5922   -0.9041 C   0  0  0  0  0
    0.8256    2.4703   -2.6026 N   0  0  0  0  0
   -1.1164    1.4450    0.4022 N   0  0  0  0  0
    2.7363    1.5238   -3.6386 N   0  0  0  0  0
    2.6319   -1.6465   -2.3795 O   0  0  0  0  0
    3.9681   -0.3705   -1.0816 O   0  0  0  0  0
   -3.5956    1.7299    1.0553 O   0  0  0  0  0
   -2.9523    2.0075   -1.3548 O   0  0  0  0  0
   -2.7674    1.3312   -0.0766 S   0  0  0  0  0
  1  8  1  0  0  0
  2  4  1  0  0  0
  3 10  1  0  0  0
  5  9  1  0  0  0
  6 18  1  0  0  0
  7 11  1  0  0  0
  7 12  1  0  0  0
  9 19  1  0  0  0
 11 20  1  0  0  0
 12 21  1  0  0  0
 13 17  1  0  0  0
 14 17  1  0  0  0
 15 20  1  0  0  0
 16 20  1  0  0  0
 17  8  1  0  0  0
 25 10  1  0  0  0
 25 19  1  0  0  0
  1  3  2  0  0  0
  2  8  2  0  0  0
  4 10  2  0  0  0
  5  7  2  0  0  0
  6  9  2  0  0  0
 11 18  2  0  0  0
 12 22  2  0  0  0
 25 23  2  0  0  0
 25 24  2  0  0  0
M  CHG  1  21  -1
M  END
> <rmsd>
0.513150513

$$$$
ZINC35397638


 25 26  0  0  0  0  0  0  0  0999 V2000
   -3.2697   -2.5866    0.4424 C   0  0  0  0  0
   -2.4308   -2.2489   -1.7979 C   0  0  0  0  0
   -3.2260   -1.2106    0.6663 C   0  0  0  0  0
   -2.3871   -0.8727   -1.5741 C   0  0  0  0  0
    1.0038    0.7938   -0.3287 C   0  0  0  0  0
   -0.0202    2.6927   -1.3299 C   0  0  0  0  0
    2.0443    0.9105   -1.2436 C   0  0  0  0  0
   -2.8722   -3.1058   -0.7897 C   0  0  0  0  0
   -0.0519    1.6979   -0.3660 C   0  0  0  0  0
   -2.7847   -0.3536   -0.3419 C   0  0  0  0  0
    1.9821    1.9405   -2.1683 C   0  0  0  0  0
    3.1615   -0.0485   -1.2021 C   0  0  0  0  0
   -2.9167   -4.5770   -1.0286 C   0  0  0  0  0
    2.2891    2.2230   -5.4022 C   0  0  0  0  0
    3.7899    4.3111   -2.5901 C   0  0  0  0  0
    2.9690    1.3819   -4.3761 C   0  0  0  0  0
    4.1876    2.8892   -2.7977 C   0  0  0  0  0
    0.9732    2.8378   -2.2353 N   0  0  0  0  0
   -1.1426    1.6031    0.5666 N   0  0  0  0  0
    3.0393    2.0657   -3.1042 N   0  0  0  0  0
    3.0772   -1.1271   -1.8998 O   0  0  0  0  0
    4.1842    0.2244   -0.4694 O   0  0  0  0  0
   -3.6855    1.6785    0.9940 O   0  0  0  0  0
   -2.8523    2.0538   -1.3436 O   0  0  0  0  0
   -2.7294    1.3689   -0.0625 S   0  0  0  0  0
  1  8  1  0  0  0
  2  4  1  0  0  0
  3 10  1  0  0  0
  5  9  1  0  0  0
  6 18  1  0  0  0
  7 11  1  0  0  0
  7 12  1  0  0  0
  9 19  1  0  0  0
 11 20  1  0  0  0
 12 21  1  0  0  0
 13  8  1  0  0  0
 14 16  1  0  0  0
 15 17  1  0  0  0
 16 20  1  0  0  0
 17 20  1  0  0  0
 25 10  1  0  0  0
 25 19  1  0  0  0
  1  3  2  0  0  0
  2  8  2  0  0  0
  4 10  2  0  0  0
  5  7  2  0  0  0
  6  9  2  0  0  0
 11 18  2  0  0  0
 12 22  2  0  0  0
 25 23  2  0  0  0
 25 24  2  0  0  0
M  CHG  1  21  -1
M  END
> <rmsd>
0.695361614

$$$$
ZINC35397638


 25 26  0  0  0  0  0  0  0  0999 V2000
   -3.5695   -2.5614    0.5535 C   0  0  0  0  0
   -2.9149   -2.3208   -1.7596 C   0  0  0  0  0
   -3.3973   -1.1906    0.7450 C   0  0  0  0  0
   -2.7427   -0.9498   -1.5682 C   0  0  0  0  0
    0.8685    0.4549   -0.6670 C   0  0  0  0  0
   -0.0899    2.4170   -1.6096 C   0  0  0  0  0
    1.8271    0.4761   -1.6740 C   0  0  0  0  0
   -3.3284   -3.1266   -0.6988 C   0  0  0  0  0
   -0.1117    1.4403   -0.6271 C   0  0  0  0  0
   -2.9838   -0.3848   -0.3159 C   0  0  0  0  0
    1.7619    1.4958   -2.6099 C   0  0  0  0  0
    2.8643   -0.5689   -1.7142 C   0  0  0  0  0
   -3.5104   -4.5924   -0.9032 C   0  0  0  0  0
    1.7933    1.7114   -5.8633 C   0  0  0  0  0
    3.7046    3.7081   -3.2401 C   0  0  0  0  0
    2.4958    0.8317   -4.8860 C   0  0  0  0  0
    3.9684    2.2564   -3.4542 C   0  0  0  0  0
    0.8249    2.4703   -2.6036 N   0  0  0  0  0
   -1.1166    1.4453    0.4016 N   0  0  0  0  0
    2.7357    1.5239   -3.6395 N   0  0  0  0  0
    2.6318   -1.6461   -2.3797 O   0  0  0  0  0
    3.9680   -0.3696   -1.0822 O   0  0  0  0  0
   -3.5959    1.7300    1.0549 O   0  0  0  0  0
   -2.9529    2.0073   -1.3553 O   0  0  0  0  0
   -2.7677    1.3312   -0.0771 S   0  0  0  0  0
  1  8  1  0  0  0
  2  4  1  0  0  0
  3 10  1  0  0  0
  5  9  1  0  0  0
  6 18  1  0  0  0
  7 11  1  0  0  0
  7 12  1  0  0  0
  9 19  1  0  0  0
 11 20  1  0  0  0
 12 21  1  0  0  0
 13  8  1  0  0  0
 14 16  1  0  0  0
 15 17  1  0  0  0
 16 20  1  0  0  0
 17 20  1  0  0  0
 25 10  1  0  0  0
 25 19  1  0  0  0
  1  3  2  0  0  0
  2  8  2  0  0  0
  4 10  2  0  0  0
  5  7  2  0  0  0
  6  9  2  0  0  0
 11 18  2  0  0  0
 12 22  2  0  0  0
 25 23  2  0  0  0
 25 24  2  0  0  0
M  CHG  1  21  -1
M  END
> <rmsd>
0.513118863

$$$$
ZINC35397674


 25 26  0  0  0  0  0  0  0  0999 V2000
   -2.9150   -2.3208   -1.7597 C   0  0  0  0  0
   -3.3285   -3.1265   -0.6989 C   0  0  0  0  0
   -2.7423   -0.9499   -1.5683 C   0  0  0  0  0
    0.8694    0.4550   -0.6667 C   0  0  0  0  0
   -3.3968   -1.1904    0.7448 C   0  0  0  0  0
   -0.0893    2.4168   -1.6095 C   0  0  0  0  0
    1.8279    0.4762   -1.6737 C   0  0  0  0  0
   -3.5694   -2.5612    0.5535 C   0  0  0  0  0
   -0.1110    1.4402   -0.6269 C   0  0  0  0  0
   -2.9832   -0.3847   -0.3161 C   0  0  0  0  0
    1.7626    1.4958   -2.6096 C   0  0  0  0  0
    2.8653   -0.5688   -1.7137 C   0  0  0  0  0
   -4.0132   -3.4232    1.6869 C   0  0  0  0  0
    1.7940    1.7110   -5.8629 C   0  0  0  0  0
    3.7050    3.7081   -3.2401 C   0  0  0  0  0
    2.4966    0.8314   -4.8856 C   0  0  0  0  0
    3.9691    2.2566   -3.4540 C   0  0  0  0  0
    0.8255    2.4702   -2.6034 N   0  0  0  0  0
   -1.1160    1.4452    0.4019 N   0  0  0  0  0
    2.7364    1.5238   -3.6392 N   0  0  0  0  0
    2.6329   -1.6460   -2.3790 O   0  0  0  0  0
    3.9689   -0.3694   -1.0816 O   0  0  0  0  0
   -3.5952    1.7299    1.0550 O   0  0  0  0  0
   -2.9520    2.0074   -1.3551 O   0  0  0  0  0
   -2.7671    1.3309   -0.0771 S   0  0  0  0  0
  1  2  1  0  0  0
  3 10  1  0  0  0
  4  9  1  0  0  0
  5  8  1  0  0  0
  6 18  1  0  0  0
  7 11  1  0  0  0
  7 12  1  0  0  0
  9 19  1  0  0  0
 11 20  1  0  0  0
 12 21  1  0  0  0
 13  8  1  0  0  0
 14 16  1  0  0  0
 15 17  1  0  0  0
 16 20  1  0  0  0
 17 20  1  0  0  0
 25 10  1  0  0  0
 25 19  1  0  0  0
  1  3  2  0  0  0
  2  8  2  0  0  0
  4  7  2  0  0  0
  5 10  2  0  0  0
  6  9  2  0  0  0
 11 18  2  0  0  0
 12 22  2  0  0  0
 25 23  2  0  0  0
 25 24  2  0  0  0
M  CHG  1  21  -1
M  END
> <rmsd>
0.513086498

$$$$
ZINC35397674


 25 26  0  0  0  0  0  0  0  0999 V2000
   -2.4310   -2.2490   -1.7980 C   0  0  0  0  0
   -2.8724   -3.1057   -0.7897 C   0  0  0  0  0
   -2.3867   -0.8729   -1.5741 C   0  0  0  0  0
    1.0046    0.7937   -0.3284 C   0  0  0  0  0
   -3.2256   -1.2103    0.6663 C   0  0  0  0  0
   -0.0195    2.6924   -1.3298 C   0  0  0  0  0
    2.0451    0.9104   -1.2433 C   0  0  0  0  0
   -3.2697   -2.5864    0.4424 C   0  0  0  0  0
   -0.0512    1.6977   -0.3658 C   0  0  0  0  0
   -2.7840   -0.3536   -0.3420 C   0  0  0  0  0
    1.9829    1.9402   -2.1682 C   0  0  0  0  0
    3.1624   -0.0487   -1.2016 C   0  0  0  0  0
   -3.7433   -3.5031    1.5195 C   0  0  0  0  0
    2.2898    2.2222   -5.4020 C   0  0  0  0  0
    3.7904    4.3108   -2.5903 C   0  0  0  0  0
    2.9698    1.3813   -4.3758 C   0  0  0  0  0
    4.1883    2.8890   -2.7977 C   0  0  0  0  0
    0.9739    2.8375   -2.2352 N   0  0  0  0  0
   -1.1419    1.6030    0.5668 N   0  0  0  0  0
    3.0401    2.0653   -3.1040 N   0  0  0  0  0
    3.0780   -1.1273   -1.8991 O   0  0  0  0  0
    4.1850    0.2243   -0.4689 O   0  0  0  0  0
   -3.6847    1.6785    0.9942 O   0  0  0  0  0
   -2.8514    2.0539   -1.3433 O   0  0  0  0  0
   -2.7287    1.3687   -0.0625 S   0  0  0  0  0
  1  2  1  0  0  0
  3 10  1  0  0  0
  4  9  1  0  0  0
  5  8  1  0  0  0
  6 18  1  0  0  0
  7 11  1  0  0  0
  7 12  1  0  0  0
  9 19  1  0  0  0
 11 20  1  0  0  0
 12 21  1  0  0  0
 13  8  1  0  0  0
 14 16  1  0  0  0
 15 17  1  0  0  0
 16 20  1  0  0  0
 17 20  1  0  0  0
 25 10  1  0  0  0
 25 19  1  0  0  0
  1  3  2  0  0  0
  2  8  2  0  0  0
  4  7  2  0  0  0
  5 10  2  0  0  0
  6  9  2  0  0  0
 11 18  2  0  0  0
 12 22  2  0  0  0
 25 23  2  0  0  0
 25 24  2  0  0  0
M  CHG  1  21  -1
M  END
> <rmsd>
0.69511652

$$$$
ZINC06316004


 25 26  0  0  0  0  0  0  0  0999 V2000
    0.8785    2.5123   -2.5623 C   0  0  0  0  0
    1.8469    1.5094   -2.6069 C   0  0  0  0  0
   -0.1003    2.4931   -1.5686 C   0  0  0  0  0
   -3.5490   -2.5637    0.5450 C   0  0  0  0  0
   -3.3833   -1.1926    0.7406 C   0  0  0  0  0
    0.8579    0.4680   -0.6641 C   0  0  0  0  0
   -2.7419   -0.9399   -1.5750 C   0  0  0  0  0
    1.8367    0.4873   -1.6578 C   0  0  0  0  0
   -0.1104    1.4708   -0.6195 C   0  0  0  0  0
   -2.9076   -2.3109   -1.7706 C   0  0  0  0  0
   -3.3112   -3.1229   -0.7106 C   0  0  0  0  0
   -2.9797   -0.3807   -0.3194 C   0  0  0  0  0
    2.8588   -0.5709   -1.7056 C   0  0  0  0  0
   -2.2564   -2.1924   -4.1967 C   0  0  0  0  0
   -2.1041   -3.1434   -5.3574 C   0  0  0  0  0
   -4.7743   -4.9101   -1.2768 C   0  0  0  0  0
   -2.6646   -2.8564   -3.0335 N   0  0  0  0  0
   -1.1126    1.4510    0.3971 N   0  0  0  0  0
    2.8276   -1.5031   -0.8176 O   0  0  0  0  0
    3.7507   -0.5294   -2.6336 O   0  0  0  0  0
   -2.0285   -0.9946   -4.3319 O   0  0  0  0  0
   -3.5998    1.7260    1.0602 O   0  0  0  0  0
   -2.9603    2.0155   -1.3495 O   0  0  0  0  0
   -3.4790   -4.4647   -0.8804 O   0  0  0  0  0
   -2.7682    1.3589   -0.0707 S   0  0  0  0  0
  1  2  1  0  0  0
  3  9  1  0  0  0
  4 11  1  0  0  0
  5 12  1  0  0  0
  6  8  1  0  0  0
  7 10  1  0  0  0
  8 13  1  0  0  0
  9 18  1  0  0  0
 10 17  1  0  0  0
 11 24  1  0  0  0
 13 19  1  0  0  0
 14 17  1  0  0  0
 15 14  1  0  0  0
 16 24  1  0  0  0
 25 12  1  0  0  0
 25 18  1  0  0  0
  1  3  2  0  0  0
  2  8  2  0  0  0
  4  5  2  0  0  0
  6  9  2  0  0  0
  7 12  2  0  0  0
 10 11  2  0  0  0
 13 20  2  0  0  0
 14 21  2  0  0  0
 25 22  2  0  0  0
 25 23  2  0  0  0
M  CHG  1  19  -1
M  END
> <rmsd>
0.519954264

$$$$
ZINC79757741


 27 29  0  0  0  0  0  0  0  0999 V2000
    5.6119   -0.6581    2.3413 C   0  0  0  0  0
    6.4369   -1.1506    1.3303 C   0  0  0  0  0
   -3.1601   -3.0385   -0.5483 C   0  0  0  0  0
   -4.5042   -3.0632   -0.9031 C   0  0  0  0  0
    4.4990    0.1179    2.0172 C   0  0  0  0  0
    6.1493   -0.8672   -0.0048 C   0  0  0  0  0
   -2.6913   -2.0493    0.3093 C   0  0  0  0  0
   -2.2571    3.0140    0.0056 C   0  0  0  0  0
   -5.3320   -2.0842   -0.3774 C   0  0  0  0  0
    4.2113    0.4014    0.6821 C   0  0  0  0  0
    5.0364   -0.0912   -0.3289 C   0  0  0  0  0
   -3.6001   -1.1156    0.7805 C   0  0  0  0  0
   -3.6577    3.0302    0.1470 C   0  0  0  0  0
   -1.8667    1.8332    0.5884 C   0  0  0  0  0
    3.0380    1.2163    0.3877 C   0  0  0  0  0
    1.7663    0.8869    0.6986 C   0  0  0  0  0
    0.6350    1.7958    0.3393 C   0  0  0  0  0
   -4.5925    4.0750   -0.3038 C   0  0  0  0  0
   -3.1278   -0.0308    1.7102 C   0  0  0  0  0
   -4.9130   -1.1075    0.4581 N   0  0  0  0  0
   -4.1254    1.9456    0.7706 N   0  0  0  0  0
   -3.0125    1.2369    1.0262 N   0  0  0  0  0
   -0.5799    1.2638    0.7514 N   0  0  0  0  0
    4.7730    0.1816   -1.7013 N   0  0  0  0  0
    4.0446   -0.6085   -2.3454 O   0  0  0  0  0
    0.8303    2.8570   -0.2416 O   0  0  0  0  0
    5.2779    1.2035   -2.2219 O   0  0  0  0  0
  1  2  1  0  0  0
  3  4  1  0  0  0
  5 10  1  0  0  0
  6 11  1  0  0  0
  7 12  1  0  0  0
  8 13  1  0  0  0
  9 20  1  0  0  0
 10 15  1  0  0  0
 11 24  1  0  0  0
 14 22  1  0  0  0
 14 23  1  0  0  0
 16 17  1  0  0  0
 17 23  1  0  0  0
 18 13  1  0  0  0
 19 12  1  0  0  0
 19 22  1  0  0  0
 22 21  1  0  0  0
 24 25  1  0  0  0
  1  5  2  0  0  0
  2  6  2  0  0  0
  3  7  2  0  0  0
  4  9  2  0  0  0
  8 14  2  0  0  0
 10 11  2  0  0  0
 12 20  2  0  0  0
 13 21  2  0  0  0
 15 16  2  0  0  0
 17 26  2  0  0  0
 24 27  2  0  0  0
M  CHG  2  24   1  25  -1
M  END
> <rmsd>
0.553825378

$$$$
ZINC58158627


 25 26  0  0  0  0  0  0  0  0999 V2000
   -3.1399   -2.7581   -0.5485 C   0  0  0  0  0
   -2.8872   -2.1757    0.6935 C   0  0  0  0  0
   -3.0293   -1.9959   -1.7115 C   0  0  0  0  0
    4.3336    2.4301    0.6154 C   0  0  0  0  0
   -2.5242   -0.8314    0.7727 C   0  0  0  0  0
   -2.6663   -0.6514   -1.6325 C   0  0  0  0  0
    3.4005    2.5198    1.6483 C   0  0  0  0  0
    4.0558    1.6543   -0.5100 C   0  0  0  0  0
   -2.4137   -0.0692   -0.3903 C   0  0  0  0  0
    2.1895    1.8338    1.5556 C   0  0  0  0  0
    2.8448    0.9683   -0.6027 C   0  0  0  0  0
    1.9117    1.0581    0.4302 C   0  0  0  0  0
   -3.0593    2.1563    0.5463 C   0  0  0  0  0
    1.2157    1.9551    2.6824 C   0  0  0  0  0
   -1.8342    2.1282   -1.6453 C   0  0  0  0  0
   -2.0148    1.4085   -0.3033 C   0  0  0  0  0
   -2.8081    3.5045    0.6985 N   0  0  0  0  0
   -0.7509    1.4791    0.4117 N   0  0  0  0  0
    2.5946    0.1870   -1.7652 N   0  0  0  0  0
    2.9437   -1.0167   -1.7720 O   0  0  0  0  0
   -4.0396    1.6078    1.0489 O   0  0  0  0  0
    2.0324    0.7261   -2.7472 O   0  0  0  0  0
    0.2930   -0.4186   -0.9873 O   0  0  0  0  0
    0.2696   -0.6277    1.5186 O   0  0  0  0  0
    0.3747    0.1911    0.3262 S   0  0  0  0  0
  1  2  1  0  0  0
  3  6  1  0  0  0
  4  8  1  0  0  0
  5  9  1  0  0  0
  7 10  1  0  0  0
 11 12  1  0  0  0
 11 19  1  0  0  0
 13 17  1  0  0  0
 14 10  1  0  0  0
 15 16  1  0  0  0
 16  9  1  0  0  0
 16 13  1  0  0  0
 16 18  1  0  0  0
 19 20  1  0  0  0
 25 12  1  0  0  0
 25 18  1  0  0  0
  1  3  2  0  0  0
  2  5  2  0  0  0
  4  7  2  0  0  0
  6  9  2  0  0  0
  8 11  2  0  0  0
 10 12  2  0  0  0
 13 21  2  0  0  0
 19 22  2  0  0  0
 25 23  2  0  0  0
 25 24  2  0  0  0
M  CHG  2  19   1  20  -1
M  END
> <rmsd>
0.697115242

$$$$
ZINC33253669


 25 26  0  0  0  0  0  0  0  0999 V2000
   -0.0380    2.7668   -1.2906 C   0  0  0  0  0
    1.0211    2.8834   -2.1907 C   0  0  0  0  0
   -3.2451   -2.5881    0.4348 C   0  0  0  0  0
   -2.4222   -2.2392   -1.8097 C   0  0  0  0  0
   -3.2071   -1.2126    0.6627 C   0  0  0  0  0
   -2.3842   -0.8636   -1.5820 C   0  0  0  0  0
    0.9955    0.8064   -0.3285 C   0  0  0  0  0
    2.0545    0.9229   -1.2287 C   0  0  0  0  0
   -0.0509    1.7283   -0.3594 C   0  0  0  0  0
    2.0674    1.9615   -2.1598 C   0  0  0  0  0
   -2.8527   -3.1015   -0.8014 C   0  0  0  0  0
   -2.7766   -0.3502   -0.3457 C   0  0  0  0  0
    3.1489   -0.0646   -1.1744 C   0  0  0  0  0
   -2.0536   -6.5883   -0.3636 C   0  0  0  0  0
    4.2940    2.8895   -2.7439 C   0  0  0  0  0
    3.0732    1.4312   -4.3660 C   0  0  0  0  0
   -2.6859   -5.2945    0.1034 C   0  0  0  0  0
   -1.1355    1.6088    0.5613 N   0  0  0  0  0
    3.1301    2.0962   -3.0808 N   0  0  0  0  0
    3.0531   -1.1309   -1.8877 O   0  0  0  0  0
    4.1593    0.1758   -0.4156 O   0  0  0  0  0
   -3.6862    1.6728    0.9982 O   0  0  0  0  0
   -2.8580    2.0600   -1.3392 O   0  0  0  0  0
   -2.8901   -4.4436   -1.0236 O   0  0  0  0  0
   -2.7293    1.3952   -0.0567 S   0  0  0  0  0
  1  9  1  0  0  0
  2 10  1  0  0  0
  3 11  1  0  0  0
  4  6  1  0  0  0
  5 12  1  0  0  0
  7  8  1  0  0  0
  8 13  1  0  0  0
  9 18  1  0  0  0
 10 19  1  0  0  0
 11 24  1  0  0  0
 13 20  1  0  0  0
 14 17  1  0  0  0
 15 19  1  0  0  0
 16 19  1  0  0  0
 17 24  1  0  0  0
 25 12  1  0  0  0
 25 18  1  0  0  0
  1  2  2  0  0  0
  3  5  2  0  0  0
  4 11  2  0  0  0
  6 12  2  0  0  0
  7  9  2  0  0  0
  8 10  2  0  0  0
 13 21  2  0  0  0
 25 22  2  0  0  0
 25 23  2  0  0  0
M  CHG  1  20  -1
M  END
> <rmsd>
0.706765234

$$$$
ZINC33253669


 25 26  0  0  0  0  0  0  0  0999 V2000
   -0.1065    2.5013   -1.5744 C   0  0  0  0  0
    0.8690    2.5243   -2.5711 C   0  0  0  0  0
   -3.5401   -2.5657    0.5408 C   0  0  0  0  0
   -2.9075   -2.3079   -1.7766 C   0  0  0  0  0
   -3.3750   -1.1949    0.7385 C   0  0  0  0  0
   -2.7424   -0.9370   -1.5790 C   0  0  0  0  0
    0.8587    0.4768   -0.6762 C   0  0  0  0  0
    1.8342    0.4998   -1.6729 C   0  0  0  0  0
   -0.1117    1.4776   -0.6269 C   0  0  0  0  0
    1.8394    1.5235   -2.6203 C   0  0  0  0  0
   -3.3064   -3.1223   -0.7167 C   0  0  0  0  0
   -2.9761   -0.3805   -0.3214 C   0  0  0  0  0
    2.8495   -0.5699   -1.7021 C   0  0  0  0  0
   -2.7407   -6.6558   -0.2903 C   0  0  0  0  0
    4.0661    2.2674   -3.4259 C   0  0  0  0  0
    2.5894    0.8911   -4.9002 C   0  0  0  0  0
   -3.2247   -5.3112    0.2093 C   0  0  0  0  0
   -1.1109    1.4540    0.3926 N   0  0  0  0  0
    2.8180    1.5641   -3.6384 N   0  0  0  0  0
    2.6052   -1.6334   -2.3834 O   0  0  0  0  0
    3.9423   -0.4009   -1.0450 O   0  0  0  0  0
   -3.5967    1.7227    1.0633 O   0  0  0  0  0
   -2.9647    2.0173   -1.3478 O   0  0  0  0  0
   -3.4678   -4.4598   -0.9096 O   0  0  0  0  0
   -2.7675    1.3591   -0.0706 S   0  0  0  0  0
  1  9  1  0  0  0
  2 10  1  0  0  0
  3 11  1  0  0  0
  4  6  1  0  0  0
  5 12  1  0  0  0
  7  8  1  0  0  0
  8 13  1  0  0  0
  9 18  1  0  0  0
 10 19  1  0  0  0
 11 24  1  0  0  0
 13 20  1  0  0  0
 14 17  1  0  0  0
 15 19  1  0  0  0
 16 19  1  0  0  0
 17 24  1  0  0  0
 25 12  1  0  0  0
 25 18  1  0  0  0
  1  2  2  0  0  0
  3  5  2  0  0  0
  4 11  2  0  0  0
  6 12  2  0  0  0
  7  9  2  0  0  0
  8 10  2  0  0  0
 13 21  2  0  0  0
 25 22  2  0  0  0
 25 23  2  0  0  0
M  CHG  1  20  -1
M  END
> <rmsd>
0.525944769

$$$$
ZINC11616102


 25 27  0  0  0  0  0  0  0  0999 V2000
   -3.0622   -2.2448   -1.1732 C   0  0  0  0  0
   -2.5940   -2.1329    0.1360 C   0  0  0  0  0
   -3.8156   -1.2141   -1.7350 C   0  0  0  0  0
   -2.8795   -0.9904    0.8834 C   0  0  0  0  0
   -4.1011   -0.0716   -0.9875 C   0  0  0  0  0
   -3.6330    0.0404    0.3217 C   0  0  0  0  0
   -0.0696    1.5082   -2.0530 C   0  0  0  0  0
    2.5230   -1.0173   -2.7921 C   0  0  0  0  0
   -1.9828    2.3852    0.3310 C   0  0  0  0  0
    0.2637    2.1581   -0.6954 C   0  0  0  0  0
    1.9806    0.3893   -2.9902 C   0  0  0  0  0
    1.4998    1.2430   -0.6891 C   0  0  0  0  0
    3.0580    1.4974   -2.8887 C   0  0  0  0  0
    2.6718    2.7214   -3.7371 C   0  0  0  0  0
    4.4648    1.0416   -3.2928 C   0  0  0  0  0
   -3.3401    3.1026    2.3163 C   0  0  0  0  0
   -2.8079    1.9201    1.5224 C   0  0  0  0  0
    1.0152    0.6895   -1.9525 N   0  0  0  0  0
   -0.7065    1.8685    0.3568 N   0  0  0  0  0
    3.1452   -1.2078   -1.7106 O   0  0  0  0  0
   -0.8739    1.7031   -2.9356 O   0  0  0  0  0
    2.2799   -1.8169   -3.7391 O   0  0  0  0  0
   -2.4392    3.1201   -0.5422 O   0  0  0  0  0
   -3.9136    1.1643    1.0570 O   0  0  0  0  0
    3.0937    2.0426   -1.1088 S   0  0  0  0  0
  1  2  1  0  0  0
  3  5  1  0  0  0
  4  6  1  0  0  0
  6 24  1  0  0  0
  7 18  1  0  0  0
  8 20  1  0  0  0
  9 19  1  0  0  0
 10  7  1  0  0  0
 10 12  1  0  0  0
 10 19  1  0  0  0
 11  8  1  0  0  0
 11 13  1  0  0  0
 11 18  1  0  0  0
 12 18  1  0  0  0
 12 25  1  0  0  0
 13 14  1  0  0  0
 13 15  1  0  0  0
 13 25  1  0  0  0
 16 17  1  0  0  0
 17  9  1  0  0  0
 17 24  1  0  0  0
  1  3  2  0  0  0
  2  4  2  0  0  0
  5  6  2  0  0  0
  7 21  2  0  0  0
  8 22  2  0  0  0
  9 23  2  0  0  0
M  CHG  1  20  -1
M  END
> <rmsd>
0.56440568

$$$$
ZINC11616102


 25 27  0  0  0  0  0  0  0  0999 V2000
   -2.7646   -2.3078   -1.0357 C   0  0  0  0  0
   -2.4671   -2.1260    0.3149 C   0  0  0  0  0
   -3.4638   -1.3238   -1.7344 C   0  0  0  0  0
   -2.8690   -0.9602    0.9668 C   0  0  0  0  0
   -3.8658   -0.1579   -1.0826 C   0  0  0  0  0
   -3.5684    0.0240    0.2680 C   0  0  0  0  0
    0.2322    1.4840   -1.7107 C   0  0  0  0  0
    2.9515   -0.9991   -2.0025 C   0  0  0  0  0
   -1.9840    2.4114    0.3729 C   0  0  0  0  0
    0.3781    2.2015   -0.3541 C   0  0  0  0  0
    2.4078    0.3821   -2.3321 C   0  0  0  0  0
    1.6234    1.3219   -0.1513 C   0  0  0  0  0
    3.4394    1.5227   -2.1493 C   0  0  0  0  0
    3.1363    2.6974   -3.0954 C   0  0  0  0  0
    4.8955    1.0885   -2.3534 C   0  0  0  0  0
   -3.5951    3.1773    2.1382 C   0  0  0  0  0
   -2.9418    1.9763    1.4728 C   0  0  0  0  0
    1.3134    0.7006   -1.4378 N   0  0  0  0  0
   -0.7100    1.9316    0.5815 N   0  0  0  0  0
    3.4370   -1.1250   -0.8442 O   0  0  0  0  0
   -0.4590    1.6180   -2.6947 O   0  0  0  0  0
    2.8468   -1.8456   -2.9339 O   0  0  0  0  0
   -2.3430    3.0946   -0.5836 O   0  0  0  0  0
   -3.9635    1.1708    0.9093 O   0  0  0  0  0
    3.2395    2.1460   -0.4062 S   0  0  0  0  0
  1  2  1  0  0  0
  3  5  1  0  0  0
  4  6  1  0  0  0
  6 24  1  0  0  0
  7 18  1  0  0  0
  8 20  1  0  0  0
  9 19  1  0  0  0
 10  7  1  0  0  0
 10 12  1  0  0  0
 10 19  1  0  0  0
 11  8  1  0  0  0
 11 13  1  0  0  0
 11 18  1  0  0  0
 12 18  1  0  0  0
 12 25  1  0  0  0
 13 14  1  0  0  0
 13 15  1  0  0  0
 13 25  1  0  0  0
 16 17  1  0  0  0
 17  9  1  0  0  0
 17 24  1  0  0  0
  1  3  2  0  0  0
  2  4  2  0  0  0
  5  6  2  0  0  0
  7 21  2  0  0  0
  8 22  2  0  0  0
  9 23  2  0  0  0
M  CHG  1  20  -1
M  END
> <rmsd>
0.631331086

$$$$
ZINC01707476


 25 27  0  0  0  0  0  0  0  0999 V2000
   -3.3543   -2.2570   -1.1014 C   0  0  0  0  0
   -2.8253   -2.1535    0.1851 C   0  0  0  0  0
   -4.0718   -1.1931   -1.6482 C   0  0  0  0  0
   -3.0141   -0.9862    0.9249 C   0  0  0  0  0
   -4.2606   -0.0258   -0.9084 C   0  0  0  0  0
   -3.7317    0.0778    0.3781 C   0  0  0  0  0
    1.4957    1.0785   -0.7895 C   0  0  0  0  0
    3.3109   -0.4460   -2.7683 C   0  0  0  0  0
   -1.9534    2.3249    0.2801 C   0  0  0  0  0
    0.2322    1.9556   -0.8353 C   0  0  0  0  0
    1.9710    0.1728   -3.1079 C   0  0  0  0  0
   -0.0504    1.2788   -2.1849 C   0  0  0  0  0
    2.0167    1.4728   -3.9352 C   0  0  0  0  0
    2.1819    1.1710   -5.4282 C   0  0  0  0  0
    3.0920    2.4727   -3.4897 C   0  0  0  0  0
   -3.1825    3.1462    2.3081 C   0  0  0  0  0
   -2.7520    1.9243    1.5124 C   0  0  0  0  0
    1.1405    0.4561   -1.9514 N   0  0  0  0  0
   -0.7076    1.7370    0.2606 N   0  0  0  0  0
    3.3549   -1.0679   -1.6709 O   0  0  0  0  0
    2.4789    1.0198   -0.0862 O   0  0  0  0  0
    4.2144   -0.2590   -3.6308 O   0  0  0  0  0
   -2.4044    3.0722   -0.5853 O   0  0  0  0  0
   -3.9172    1.2262    1.1060 O   0  0  0  0  0
    0.3549    2.2775   -3.6727 S   0  0  0  0  0
  1  2  1  0  0  0
  3  5  1  0  0  0
  4  6  1  0  0  0
  6 24  1  0  0  0
  7 18  1  0  0  0
  8 20  1  0  0  0
  9 19  1  0  0  0
 10  7  1  0  0  0
 10 12  1  0  0  0
 10 19  1  0  0  0
 11  8  1  0  0  0
 11 13  1  0  0  0
 11 18  1  0  0  0
 12 18  1  0  0  0
 12 25  1  0  0  0
 13 14  1  0  0  0
 13 15  1  0  0  0
 13 25  1  0  0  0
 16 17  1  0  0  0
 17  9  1  0  0  0
 17 24  1  0  0  0
  1  3  2  0  0  0
  2  4  2  0  0  0
  5  6  2  0  0  0
  7 21  2  0  0  0
  8 22  2  0  0  0
  9 23  2  0  0  0
M  CHG  1  20  -1
M  END
> <rmsd>
0.457705587

$$$$
ZINC91054569


 25 26  0  0  0  0  0  0  0  0999 V2000
    0.7336    2.4787   -2.7109 C   0  0  0  0  0
   -3.7249   -2.5339    0.5980 C   0  0  0  0  0
    1.5691    1.3794   -2.9086 C   0  0  0  0  0
   -3.4994   -1.1706    0.7885 C   0  0  0  0  0
   -3.0114   -0.9225   -1.5647 C   0  0  0  0  0
   -0.1719    2.4846   -1.6499 C   0  0  0  0  0
   -3.5935   -3.0915   -0.6739 C   0  0  0  0  0
    0.5935    0.2919   -0.9844 C   0  0  0  0  0
   -3.2368   -2.2857   -1.7551 C   0  0  0  0  0
   -0.2419    1.3912   -0.7866 C   0  0  0  0  0
    1.4991    0.2860   -2.0455 C   0  0  0  0  0
   -3.1427   -0.3649   -0.2927 C   0  0  0  0  0
   -1.0542    3.6759   -1.4631 C   0  0  0  0  0
   -3.8390   -4.5549   -0.8485 C   0  0  0  0  0
    0.5160   -0.8801   -0.0549 C   0  0  0  0  0
   -1.8200   -3.3482   -3.4941 C   0  0  0  0  0
   -4.2378   -2.8983   -3.9421 C   0  0  0  0  0
   -1.1724    1.4005    0.3026 N   0  0  0  0  0
   -3.0988   -2.8332   -3.0495 N   0  0  0  0  0
    2.3630   -0.8220   -2.2680 N   0  0  0  0  0
    3.4892   -0.8317   -1.7177 O   0  0  0  0  0
    1.9720   -1.7556   -3.0076 O   0  0  0  0  0
   -3.5926    1.7500    1.1392 O   0  0  0  0  0
   -3.1164    2.0375   -1.3083 O   0  0  0  0  0
   -2.8560    1.3647   -0.0501 S   0  0  0  0  0
  1  3  1  0  0  0
  2  7  1  0  0  0
  4 12  1  0  0  0
  5  9  1  0  0  0
  6 10  1  0  0  0
  8 11  1  0  0  0
  9 19  1  0  0  0
 10 18  1  0  0  0
 11 20  1  0  0  0
 13  6  1  0  0  0
 14  7  1  0  0  0
 15  8  1  0  0  0
 16 19  1  0  0  0
 17 19  1  0  0  0
 20 21  1  0  0  0
 25 12  1  0  0  0
 25 18  1  0  0  0
  1  6  2  0  0  0
  2  4  2  0  0  0
  3 11  2  0  0  0
  5 12  2  0  0  0
  7  9  2  0  0  0
  8 10  2  0  0  0
 20 22  2  0  0  0
 25 23  2  0  0  0
 25 24  2  0  0  0
M  CHG  2  20   1  21  -1
M  END
> <rmsd>
0.399427563

$$$$
ZINC91054569


 25 26  0  0  0  0  0  0  0  0999 V2000
    0.7337    2.4779   -2.7114 C   0  0  0  0  0
   -3.2372   -2.2851   -1.7554 C   0  0  0  0  0
    1.5694    1.3787   -2.9088 C   0  0  0  0  0
   -3.0109   -0.9222   -1.5640 C   0  0  0  0  0
   -3.4990   -1.1717    0.7891 C   0  0  0  0  0
   -0.1716    2.4840   -1.6502 C   0  0  0  0  0
   -3.5944   -3.0914   -0.6748 C   0  0  0  0  0
    0.5943    0.2918   -0.9840 C   0  0  0  0  0
   -3.7253   -2.5347    0.5975 C   0  0  0  0  0
   -0.2413    1.3910   -0.7866 C   0  0  0  0  0
    1.4997    0.2856   -2.0452 C   0  0  0  0  0
   -3.1418   -0.3654   -0.2917 C   0  0  0  0  0
   -1.0541    3.6753   -1.4638 C   0  0  0  0  0
   -3.8328   -4.5477   -0.9092 C   0  0  0  0  0
    0.5170   -0.8800   -0.0541 C   0  0  0  0  0
   -5.4809   -3.5188    2.0499 C   0  0  0  0  0
   -3.0675   -3.9944    2.4941 C   0  0  0  0  0
   -1.1717    1.4005    0.3027 N   0  0  0  0  0
   -4.0867   -3.3357    1.7030 N   0  0  0  0  0
    2.3638   -0.8223   -2.2674 N   0  0  0  0  0
    3.4900   -0.8317   -1.7173 O   0  0  0  0  0
    1.9729   -1.7562   -3.0066 O   0  0  0  0  0
   -3.5919    1.7499    1.1395 O   0  0  0  0  0
   -3.1160    2.0366   -1.3081 O   0  0  0  0  0
   -2.8554    1.3643   -0.0497 S   0  0  0  0  0
  1  3  1  0  0  0
  2  7  1  0  0  0
  4 12  1  0  0  0
  5  9  1  0  0  0
  6 10  1  0  0  0
  8 11  1  0  0  0
  9 19  1  0  0  0
 10 18  1  0  0  0
 11 20  1  0  0  0
 13  6  1  0  0  0
 14  7  1  0  0  0
 15  8  1  0  0  0
 16 19  1  0  0  0
 17 19  1  0  0  0
 20 21  1  0  0  0
 25 12  1  0  0  0
 25 18  1  0  0  0
  1  6  2  0  0  0
  2  4  2  0  0  0
  3 11  2  0  0  0
  5 12  2  0  0  0
  7  9  2  0  0  0
  8 10  2  0  0  0
 20 22  2  0  0  0
 25 23  2  0  0  0
 25 24  2  0  0  0
M  CHG  2  20   1  21  -1
M  END
> <rmsd>
0.399545968

$$$$
ZINC83014547


 25 26  0  0  0  0  0  0  0  0999 V2000
    1.3815   -2.0939   -0.4647 C   0  0  0  0  0
    0.6756   -0.9010   -0.3422 C   0  0  0  0  0
   -4.7498   -0.9901    0.5116 C   0  0  0  0  0
   -4.0188   -3.0541   -1.2171 C   0  0  0  0  0
    2.6370   -2.0699   -1.0551 C   0  0  0  0  0
    2.4923    0.2496   -1.3902 C   0  0  0  0  0
    1.2330    0.2857   -0.8086 C   0  0  0  0  0
   -5.3691   -2.2359    0.6117 C   0  0  0  0  0
   -3.7650   -0.7763   -0.4529 C   0  0  0  0  0
   -3.3995   -1.8083   -1.3172 C   0  0  0  0  0
   -5.0036   -3.2679   -0.2526 C   0  0  0  0  0
    0.4955    1.5696   -0.6873 C   0  0  0  0  0
   -3.4297    1.5823    0.2577 C   0  0  0  0  0
   -6.4204   -2.4243    1.6572 C   0  0  0  0  0
   -2.8751   -1.1551   -3.5430 C   0  0  0  0  0
   -2.5526    2.7612   -0.1520 C   0  0  0  0  0
   -1.2244    2.8211    0.5904 C   0  0  0  0  0
    3.1502   -0.9132   -1.4955 N   0  0  0  0  0
   -3.1538    0.4770   -0.5422 N   0  0  0  0  0
   -0.4172    1.6537    0.3571 N   0  0  0  0  0
    4.3155   -0.9193   -2.0385 O   0  0  0  0  0
    0.7061    2.4622   -1.5042 O   0  0  0  0  0
   -4.2486    1.6684    1.1662 O   0  0  0  0  0
   -2.4403   -1.6199   -2.2670 O   0  0  0  0  0
   -5.7471   -4.8226   -0.1568 Cl  0  0  0  0  0
  1  5  1  0  0  0
  2  7  1  0  0  0
  3  8  1  0  0  0
  4 11  1  0  0  0
  6 18  1  0  0  0
  7 12  1  0  0  0
  9 10  1  0  0  0
  9 19  1  0  0  0
 10 24  1  0  0  0
 11 25  1  0  0  0
 12 20  1  0  0  0
 13 19  1  0  0  0
 14  8  1  0  0  0
 15 24  1  0  0  0
 16 13  1  0  0  0
 16 17  1  0  0  0
 17 20  1  0  0  0
 18 21  1  0  0  0
  1  2  2  0  0  0
  3  9  2  0  0  0
  4 10  2  0  0  0
  5 18  2  0  0  0
  6  7  2  0  0  0
  8 11  2  0  0  0
 12 22  2  0  0  0
 13 23  2  0  0  0
M  CHG  2  18   1  21  -1
M  END
> <rmsd>
0.658672154

$$$$
ZINC13340964


 25 26  0  0  0  0  0  0  0  0999 V2000
   -3.5508   -2.5638    0.5457 C   0  0  0  0  0
   -2.9116   -2.3114   -1.7705 C   0  0  0  0  0
   -3.3837   -1.1928    0.7412 C   0  0  0  0  0
   -2.7446   -0.9405   -1.5751 C   0  0  0  0  0
    1.8470    1.5089   -2.6083 C   0  0  0  0  0
   -0.1013    2.4915   -1.5712 C   0  0  0  0  0
    0.8581    0.4674   -0.6656 C   0  0  0  0  0
    0.8778    2.5111   -2.5645 C   0  0  0  0  0
    1.8371    0.4871   -1.6589 C   0  0  0  0  0
   -0.1112    1.4697   -0.6217 C   0  0  0  0  0
   -3.3146   -3.1231   -0.7101 C   0  0  0  0  0
   -2.9806   -0.3812   -0.3192 C   0  0  0  0  0
    0.8883    3.5894   -3.5664 C   0  0  0  0  0
    2.8600   -0.5706   -1.7054 C   0  0  0  0  0
   -1.1127    1.4502    0.3958 N   0  0  0  0  0
   -3.4859   -4.5182   -0.9095 N   0  0  0  0  0
   -0.0180    4.5023   -3.5038 O   0  0  0  0  0
    2.8286   -1.5022   -0.8170 O   0  0  0  0  0
   -3.8504   -5.2306    0.0571 O   0  0  0  0  0
    1.8032    3.5841   -4.4729 O   0  0  0  0  0
    3.7525   -0.5290   -2.6328 O   0  0  0  0  0
   -3.2687   -5.0014   -2.0472 O   0  0  0  0  0
   -3.5992    1.7259    1.0604 O   0  0  0  0  0
   -2.9613    2.0149   -1.3498 O   0  0  0  0  0
   -2.7684    1.3584   -0.0710 S   0  0  0  0  0
  1  3  1  0  0  0
  2 11  1  0  0  0
  4 12  1  0  0  0
  5  8  1  0  0  0
  6 10  1  0  0  0
  7  9  1  0  0  0
  8 13  1  0  0  0
  9 14  1  0  0  0
 10 15  1  0  0  0
 11 16  1  0  0  0
 13 17  1  0  0  0
 14 18  1  0  0  0
 16 19  1  0  0  0
 25 12  1  0  0  0
 25 15  1  0  0  0
  1 11  2  0  0  0
  2  4  2  0  0  0
  3 12  2  0  0  0
  5  9  2  0  0  0
  6  8  2  0  0  0
  7 10  2  0  0  0
 13 20  2  0  0  0
 14 21  2  0  0  0
 16 22  2  0  0  0
 25 23  2  0  0  0
 25 24  2  0  0  0
M  CHG  4  16   1  17  -1  18  -1  19  -1
M  END
> <rmsd>
0.518788815

$$$$
ZINC35397449


 25 27  0  0  0  0  0  0  0  0999 V2000
   -3.2791   -2.5845    0.4526 C   0  0  0  0  0
   -2.4322   -2.2556   -1.7860 C   0  0  0  0  0
   -3.2326   -1.2078    0.6724 C   0  0  0  0  0
   -2.3857   -0.8789   -1.5662 C   0  0  0  0  0
    1.0045    0.7845   -0.3097 C   0  0  0  0  0
    0.0115    2.7189   -1.2732 C   0  0  0  0  0
    2.0568    0.9138   -1.2093 C   0  0  0  0  0
   -0.0416    1.7001   -0.3358 C   0  0  0  0  0
   -2.8788   -3.1083   -0.7766 C   0  0  0  0  0
   -2.7859   -0.3551   -0.3369 C   0  0  0  0  0
    2.0158    1.9677   -2.1079 C   0  0  0  0  0
    3.1636   -0.0575   -1.1797 C   0  0  0  0  0
    5.1715    2.6993   -3.9568 C   0  0  0  0  0
    4.3704    1.9480   -5.0007 C   0  0  0  0  0
    4.4860    2.3005   -2.6549 C   0  0  0  0  0
    2.9420    2.0739   -4.4832 C   0  0  0  0  0
    1.0168    2.8769   -2.1631 N   0  0  0  0  0
    3.0780    2.1050   -3.0218 N   0  0  0  0  0
   -1.1340    1.5938    0.5732 N   0  0  0  0  0
    3.0766   -1.1170   -1.9058 O   0  0  0  0  0
    4.1804    0.1858   -0.4285 O   0  0  0  0  0
   -3.6902    1.6840    0.9861 O   0  0  0  0  0
   -2.8359    2.0499   -1.3453 O   0  0  0  0  0
   -2.9221   -4.4305   -0.9872 F   0  0  0  0  0
   -2.7256    1.3916   -0.0578 S   0  0  0  0  0
  1  3  1  0  0  0
  2  9  1  0  0  0
  4 10  1  0  0  0
  5  8  1  0  0  0
  6 17  1  0  0  0
  7 11  1  0  0  0
  7 12  1  0  0  0
  8 19  1  0  0  0
  9 24  1  0  0  0
 11 18  1  0  0  0
 12 20  1  0  0  0
 13 14  1  0  0  0
 13 15  1  0  0  0
 14 16  1  0  0  0
 15 18  1  0  0  0
 16 18  1  0  0  0
 25 10  1  0  0  0
 25 19  1  0  0  0
  1  9  2  0  0  0
  2  4  2  0  0  0
  3 10  2  0  0  0
  5  7  2  0  0  0
  6  8  2  0  0  0
 11 17  2  0  0  0
 12 21  2  0  0  0
 25 22  2  0  0  0
 25 23  2  0  0  0
M  CHG  1  20  -1
M  END
> <rmsd>
0.689384282

$$$$
ZINC35397449


 25 27  0  0  0  0  0  0  0  0999 V2000
   -3.5696   -2.5600    0.5586 C   0  0  0  0  0
   -2.9149   -2.3219   -1.7548 C   0  0  0  0  0
   -3.3973   -1.1890    0.7484 C   0  0  0  0  0
   -2.7428   -0.9508   -1.5650 C   0  0  0  0  0
    0.8681    0.4569   -0.6600 C   0  0  0  0  0
   -0.0605    2.4525   -1.5612 C   0  0  0  0  0
    1.8376    0.4943   -1.6559 C   0  0  0  0  0
   -0.1026    1.4509   -0.6048 C   0  0  0  0  0
   -3.3283   -3.1265   -0.6930 C   0  0  0  0  0
   -2.9839   -0.3843   -0.3133 C   0  0  0  0  0
    1.7928    1.5387   -2.5655 C   0  0  0  0  0
    2.8648   -0.5598   -1.7124 C   0  0  0  0  0
    4.8067    2.0027   -4.7134 C   0  0  0  0  0
    3.8555    1.3050   -5.6645 C   0  0  0  0  0
    4.2186    1.6723   -3.3464 C   0  0  0  0  0
    2.4961    1.5472   -5.0184 C   0  0  0  0  0
    0.8655    2.5222   -2.5437 N   0  0  0  0  0
    2.7714    1.5831   -3.5768 N   0  0  0  0  0
   -1.1093    1.4396    0.4038 N   0  0  0  0  0
    2.6288   -1.6169   -2.4081 O   0  0  0  0  0
    3.9635   -0.3884   -1.0637 O   0  0  0  0  0
   -3.6008    1.7329    1.0516 O   0  0  0  0  0
   -2.9448    2.0063   -1.3555 O   0  0  0  0  0
   -3.4923   -4.4435   -0.8750 F   0  0  0  0  0
   -2.7642    1.3553   -0.0723 S   0  0  0  0  0
  1  3  1  0  0  0
  2  9  1  0  0  0
  4 10  1  0  0  0
  5  8  1  0  0  0
  6 17  1  0  0  0
  7 11  1  0  0  0
  7 12  1  0  0  0
  8 19  1  0  0  0
  9 24  1  0  0  0
 11 18  1  0  0  0
 12 20  1  0  0  0
 13 14  1  0  0  0
 13 15  1  0  0  0
 14 16  1  0  0  0
 15 18  1  0  0  0
 16 18  1  0  0  0
 25 10  1  0  0  0
 25 19  1  0  0  0
  1  9  2  0  0  0
  2  4  2  0  0  0
  3 10  2  0  0  0
  5  7  2  0  0  0
  6  8  2  0  0  0
 11 17  2  0  0  0
 12 21  2  0  0  0
 25 22  2  0  0  0
 25 23  2  0  0  0
M  CHG  1  20  -1
M  END
> <rmsd>
0.510475159

$$$$
ZINC90626126


 25 27  0  0  0  0  0  0  0  0999 V2000
   -5.1626   -1.6486   -1.3950 C   0  0  0  0  0
    1.0173    2.1043   -4.4382 C   0  0  0  0  0
   -5.1727   -2.8977   -0.7814 C   0  0  0  0  0
    0.5470    3.1450   -3.6374 C   0  0  0  0  0
   -4.3580   -0.6276   -0.8869 C   0  0  0  0  0
    1.4850    0.9288   -3.8507 C   0  0  0  0  0
   -4.3734   -3.1288    0.3360 C   0  0  0  0  0
    0.5442    3.0102   -2.2491 C   0  0  0  0  0
   -3.5504   -0.8409    0.2432 C   0  0  0  0  0
    1.4823    0.7941   -2.4623 C   0  0  0  0  0
   -3.5562   -2.1117    0.8402 C   0  0  0  0  0
    1.0120    1.8348   -1.6615 C   0  0  0  0  0
   -2.2266   -0.0897    2.2149 C   0  0  0  0  0
   -1.7605   -1.5339    2.2663 C   0  0  0  0  0
   -2.6870    0.2731    0.7976 C   0  0  0  0  0
   -1.4985    0.5496   -0.1323 C   0  0  0  0  0
   -0.7101    1.6037    0.4052 N   0  0  0  0  0
    1.9657   -0.4169   -1.8935 N   0  0  0  0  0
    3.1829   -0.5081   -1.6082 O   0  0  0  0  0
    1.1600   -1.3562   -1.6945 O   0  0  0  0  0
    1.5985    0.4454    0.4682 O   0  0  0  0  0
    1.5223    2.9545    0.6209 O   0  0  0  0  0
   -2.8159   -2.4429    1.9464 O   0  0  0  0  0
   -3.4634    1.4709    0.8924 O   0  0  0  0  0
    0.9891    1.7096    0.1015 S   0  0  0  0  0
  1  3  1  0  0  0
  2  4  1  0  0  0
  5  9  1  0  0  0
  6 10  1  0  0  0
  7 11  1  0  0  0
  8 12  1  0  0  0
 10 18  1  0  0  0
 11 23  1  0  0  0
 13 14  1  0  0  0
 13 15  1  0  0  0
 14 23  1  0  0  0
 15  9  1  0  0  0
 15 16  1  0  0  0
 15 24  1  0  0  0
 16 17  1  0  0  0
 18 19  1  0  0  0
 25 12  1  0  0  0
 25 17  1  0  0  0
  1  5  2  0  0  0
  2  6  2  0  0  0
  3  7  2  0  0  0
  4  8  2  0  0  0
  9 11  2  0  0  0
 10 12  2  0  0  0
 18 20  2  0  0  0
 25 21  2  0  0  0
 25 22  2  0  0  0
M  CHG  2  18   1  19  -1
M  END
> <rmsd>
0.579470277

$$$$
ZINC35397733


 25 26  0  0  0  0  0  0  0  0999 V2000
   -3.5702   -2.5608    0.5541 C   0  0  0  0  0
   -2.9164   -2.3213   -1.7594 C   0  0  0  0  0
   -3.3968   -1.1900    0.7450 C   0  0  0  0  0
   -2.7430   -0.9505   -1.5685 C   0  0  0  0  0
    0.8692    0.4549   -0.6668 C   0  0  0  0  0
   -0.0894    2.4167   -1.6097 C   0  0  0  0  0
    1.8278    0.4761   -1.6738 C   0  0  0  0  0
   -0.1111    1.4402   -0.6270 C   0  0  0  0  0
   -3.3299   -3.1264   -0.6982 C   0  0  0  0  0
   -2.9833   -0.3848   -0.3163 C   0  0  0  0  0
    1.7626    1.4958   -2.6097 C   0  0  0  0  0
    2.8652   -0.5689   -1.7139 C   0  0  0  0  0
   -2.7933   -6.6613   -0.2461 C   0  0  0  0  0
    2.4966    0.8315   -4.8857 C   0  0  0  0  0
    3.9691    2.2565   -3.4541 C   0  0  0  0  0
   -3.2717   -5.3104    0.2414 C   0  0  0  0  0
    0.8256    2.4701   -2.6036 N   0  0  0  0  0
   -1.1160    1.4451    0.4017 N   0  0  0  0  0
    2.7365    1.5238   -3.6393 N   0  0  0  0  0
    2.6328   -1.6461   -2.3793 O   0  0  0  0  0
    3.9689   -0.3695   -1.0818 O   0  0  0  0  0
   -3.5953    1.7298    1.0547 O   0  0  0  0  0
   -2.9521    2.0072   -1.3554 O   0  0  0  0  0
   -3.4994   -4.4639   -0.8844 O   0  0  0  0  0
   -2.7672    1.3309   -0.0772 S   0  0  0  0  0
  1  9  1  0  0  0
  2  4  1  0  0  0
  3 10  1  0  0  0
  5  8  1  0  0  0
  6 17  1  0  0  0
  7 11  1  0  0  0
  7 12  1  0  0  0
  8 18  1  0  0  0
  9 24  1  0  0  0
 11 19  1  0  0  0
 12 20  1  0  0  0
 13 16  1  0  0  0
 14 19  1  0  0  0
 15 19  1  0  0  0
 16 24  1  0  0  0
 25 10  1  0  0  0
 25 18  1  0  0  0
  1  3  2  0  0  0
  2  9  2  0  0  0
  4 10  2  0  0  0
  5  7  2  0  0  0
  6  8  2  0  0  0
 11 17  2  0  0  0
 12 21  2  0  0  0
 25 22  2  0  0  0
 25 23  2  0  0  0
M  CHG  1  20  -1
M  END
> <rmsd>
0.512607574

$$$$
ZINC35397733


 25 26  0  0  0  0  0  0  0  0999 V2000
   -3.2704   -2.5861    0.4430 C   0  0  0  0  0
   -2.4322   -2.2496   -1.7978 C   0  0  0  0  0
   -3.2254   -1.2100    0.6664 C   0  0  0  0  0
   -2.3872   -0.8735   -1.5744 C   0  0  0  0  0
    1.0046    0.7937   -0.3286 C   0  0  0  0  0
   -0.0195    2.6924   -1.3300 C   0  0  0  0  0
    2.0452    0.9104   -1.2434 C   0  0  0  0  0
   -0.0512    1.6977   -0.3659 C   0  0  0  0  0
   -2.8737   -3.1059   -0.7892 C   0  0  0  0  0
   -2.7839   -0.3537   -0.3423 C   0  0  0  0  0
    1.9830    1.9403   -2.1683 C   0  0  0  0  0
    3.1625   -0.0486   -1.2018 C   0  0  0  0  0
   -2.0980   -6.5959   -0.3352 C   0  0  0  0  0
    2.9699    1.3815   -4.3760 C   0  0  0  0  0
    4.1884    2.8891   -2.7977 C   0  0  0  0  0
   -2.7253   -5.2968    0.1238 C   0  0  0  0  0
    0.9740    2.8375   -2.2353 N   0  0  0  0  0
   -1.1419    1.6029    0.5666 N   0  0  0  0  0
    3.0402    2.0655   -3.1041 N   0  0  0  0  0
    3.0781   -1.1273   -1.8994 O   0  0  0  0  0
    4.1852    0.2244   -0.4691 O   0  0  0  0  0
   -3.6847    1.6783    0.9939 O   0  0  0  0  0
   -2.8513    2.0537   -1.3437 O   0  0  0  0  0
   -2.9178   -4.4486   -1.0072 O   0  0  0  0  0
   -2.7286    1.3686   -0.0626 S   0  0  0  0  0
  1  9  1  0  0  0
  2  4  1  0  0  0
  3 10  1  0  0  0
  5  8  1  0  0  0
  6 17  1  0  0  0
  7 11  1  0  0  0
  7 12  1  0  0  0
  8 18  1  0  0  0
  9 24  1  0  0  0
 11 19  1  0  0  0
 12 20  1  0  0  0
 13 16  1  0  0  0
 14 19  1  0  0  0
 15 19  1  0  0  0
 16 24  1  0  0  0
 25 10  1  0  0  0
 25 18  1  0  0  0
  1  3  2  0  0  0
  2  9  2  0  0  0
  4 10  2  0  0  0
  5  7  2  0  0  0
  6  8  2  0  0  0
 11 17  2  0  0  0
 12 21  2  0  0  0
 25 22  2  0  0  0
 25 23  2  0  0  0
M  CHG  1  20  -1
M  END
> <rmsd>
0.694944322

$$$$
ZINC91054712


 25 26  0  0  0  0  0  0  0  0999 V2000
    0.7338    2.4777   -2.7119 C   0  0  0  0  0
    1.5696    1.3785   -2.9092 C   0  0  0  0  0
   -3.4979   -1.1714    0.7894 C   0  0  0  0  0
   -3.0125   -0.9233   -1.5643 C   0  0  0  0  0
   -0.1715    2.4838   -1.6507 C   0  0  0  0  0
   -3.7255   -2.5343    0.5988 C   0  0  0  0  0
   -3.2401   -2.2862   -1.7549 C   0  0  0  0  0
    0.5945    0.2915   -0.9845 C   0  0  0  0  0
   -0.2411    1.3907   -0.7870 C   0  0  0  0  0
    1.4999    0.2854   -2.0457 C   0  0  0  0  0
   -3.5965   -3.0917   -0.6733 C   0  0  0  0  0
   -3.1415   -0.3659   -0.2922 C   0  0  0  0  0
   -1.0540    3.6750   -1.4642 C   0  0  0  0  0
   -4.1065   -3.3800    1.7692 C   0  0  0  0  0
   -3.0974   -2.8642   -3.1243 C   0  0  0  0  0
    0.5173   -0.8802   -0.0546 C   0  0  0  0  0
   -2.6972   -5.2928   -0.7203 C   0  0  0  0  0
   -1.1715    1.4001    0.3022 N   0  0  0  0  0
    2.3641   -0.8225   -2.2679 N   0  0  0  0  0
    3.4903   -0.8318   -1.7178 O   0  0  0  0  0
    1.9732   -1.7564   -3.0071 O   0  0  0  0  0
   -3.5917    1.7494    1.1391 O   0  0  0  0  0
   -3.1158    2.0361   -1.3086 O   0  0  0  0  0
   -3.8189   -4.4242   -0.8599 O   0  0  0  0  0
   -2.8552    1.3639   -0.0502 S   0  0  0  0  0
  1  5  1  0  0  0
  2 10  1  0  0  0
  3 12  1  0  0  0
  4  7  1  0  0  0
  6 11  1  0  0  0
  8  9  1  0  0  0
  9 18  1  0  0  0
 10 19  1  0  0  0
 11 24  1  0  0  0
 13  5  1  0  0  0
 14  6  1  0  0  0
 15  7  1  0  0  0
 16  8  1  0  0  0
 17 24  1  0  0  0
 19 20  1  0  0  0
 25 12  1  0  0  0
 25 18  1  0  0  0
  1  2  2  0  0  0
  3  6  2  0  0  0
  4 12  2  0  0  0
  5  9  2  0  0  0
  7 11  2  0  0  0
  8 10  2  0  0  0
 19 21  2  0  0  0
 25 22  2  0  0  0
 25 23  2  0  0  0
M  CHG  2  19   1  20  -1
M  END
> <rmsd>
0.398854464

$$$$
ZINC91054438


 25 26  0  0  0  0  0  0  0  0999 V2000
    0.7220    2.4623   -2.7259 C   0  0  0  0  0
    1.5601    1.3639   -2.9176 C   0  0  0  0  0
   -3.7544   -2.1871   -1.7484 C   0  0  0  0  0
   -3.5252   -0.8277   -1.5365 C   0  0  0  0  0
   -0.1804    2.4737   -1.6623 C   0  0  0  0  0
   -3.2123   -2.6386    0.5624 C   0  0  0  0  0
   -2.9831   -1.2791    0.7741 C   0  0  0  0  0
    0.5930    0.2883   -0.9825 C   0  0  0  0  0
   -0.2449    1.3867   -0.7906 C   0  0  0  0  0
    1.4955    0.2768   -2.0460 C   0  0  0  0  0
   -3.5981   -3.0926   -0.6989 C   0  0  0  0  0
   -3.1394   -0.3736   -0.2753 C   0  0  0  0  0
   -1.0655    3.6640   -1.4820 C   0  0  0  0  0
   -3.0482   -3.6173    1.6814 C   0  0  0  0  0
   -2.5697   -0.7996    2.1300 C   0  0  0  0  0
    0.5213   -0.8769   -0.0439 C   0  0  0  0  0
   -4.2178   -4.7901   -2.2449 C   0  0  0  0  0
   -1.1724    1.4016    0.3011 N   0  0  0  0  0
    2.3619   -0.8304   -2.2626 N   0  0  0  0  0
    3.4897   -0.8329   -1.7155 O   0  0  0  0  0
    1.9715   -1.7706   -2.9940 O   0  0  0  0  0
   -3.5912    1.7508    1.1419 O   0  0  0  0  0
   -3.1227    2.0211   -1.3090 O   0  0  0  0  0
   -3.8273   -4.4166   -0.9251 O   0  0  0  0  0
   -2.8569    1.3586   -0.0465 S   0  0  0  0  0
  1  5  1  0  0  0
  2 10  1  0  0  0
  3 11  1  0  0  0
  4 12  1  0  0  0
  6  7  1  0  0  0
  8  9  1  0  0  0
  9 18  1  0  0  0
 10 19  1  0  0  0
 11 24  1  0  0  0
 13  5  1  0  0  0
 14  6  1  0  0  0
 15  7  1  0  0  0
 16  8  1  0  0  0
 17 24  1  0  0  0
 19 20  1  0  0  0
 25 12  1  0  0  0
 25 18  1  0  0  0
  1  2  2  0  0  0
  3  4  2  0  0  0
  5  9  2  0  0  0
  6 11  2  0  0  0
  7 12  2  0  0  0
  8 10  2  0  0  0
 19 21  2  0  0  0
 25 22  2  0  0  0
 25 23  2  0  0  0
M  CHG  2  19   1  20  -1
M  END
> <rmsd>
0.40151763

$$$$
ZINC16099620


 25 26  0  0  0  0  0  0  0  0999 V2000
   -3.7327   -2.5152    0.6528 C   0  0  0  0  0
   -2.8706   -2.3801   -1.6002 C   0  0  0  0  0
    2.0296    1.2216   -2.1651 C   0  0  0  0  0
    1.1785    2.3265   -2.1833 C   0  0  0  0  0
   -3.5486   -1.1411    0.8057 C   0  0  0  0  0
   -2.6866   -1.0059   -1.4472 C   0  0  0  0  0
    0.7525    0.2678   -0.3496 C   0  0  0  0  0
   -3.3937   -3.1347   -0.5502 C   0  0  0  0  0
   -0.0986    1.3727   -0.3677 C   0  0  0  0  0
    1.8165    0.1922   -1.2483 C   0  0  0  0  0
    0.1145    2.4021   -1.2846 C   0  0  0  0  0
   -3.0256   -0.3863   -0.2443 C   0  0  0  0  0
   -5.0862   -5.0004   -0.5297 C   0  0  0  0  0
   -2.7580   -5.4053    0.3372 C   0  0  0  0  0
   -3.1714   -5.1865   -2.1047 C   0  0  0  0  0
   -0.3474    4.5978   -0.4963 C   0  0  0  0  0
   -3.5944   -4.6500   -0.7183 C   0  0  0  0  0
   -1.1904    1.4374    0.5661 N   0  0  0  0  0
    2.6826   -0.9330   -1.2302 N   0  0  0  0  0
    3.6336   -0.9815   -2.0475 O   0  0  0  0  0
    2.4737   -1.8478   -0.3972 O   0  0  0  0  0
   -3.7111    1.7927    0.9835 O   0  0  0  0  0
   -2.8512    1.9608   -1.3685 O   0  0  0  0  0
   -0.7064    3.4895   -1.3185 O   0  0  0  0  0
   -2.7947    1.3337   -0.0536 S   0  0  0  0  0
  1  8  1  0  0  0
  2  6  1  0  0  0
  3 10  1  0  0  0
  4 11  1  0  0  0
  5 12  1  0  0  0
  7  9  1  0  0  0
  9 18  1  0  0  0
 10 19  1  0  0  0
 11 24  1  0  0  0
 13 17  1  0  0  0
 14 17  1  0  0  0
 15 17  1  0  0  0
 16 24  1  0  0  0
 17  8  1  0  0  0
 19 20  1  0  0  0
 25 12  1  0  0  0
 25 18  1  0  0  0
  1  5  2  0  0  0
  2  8  2  0  0  0
  3  4  2  0  0  0
  6 12  2  0  0  0
  7 10  2  0  0  0
  9 11  2  0  0  0
 19 21  2  0  0  0
 25 22  2  0  0  0
 25 23  2  0  0  0
M  CHG  2  19   1  20  -1
M  END
> <rmsd>
0.42803967

$$$$
ZINC91054434


 25 26  0  0  0  0  0  0  0  0999 V2000
    0.7235    2.4641   -2.7242 C   0  0  0  0  0
    1.5614    1.3655   -2.9165 C   0  0  0  0  0
   -3.2118   -2.6362    0.5647 C   0  0  0  0  0
   -3.5253   -0.8289   -1.5372 C   0  0  0  0  0
   -0.1793    2.4749   -1.6609 C   0  0  0  0  0
   -2.9826   -1.2764    0.7742 C   0  0  0  0  0
   -3.7545   -2.1888   -1.7466 C   0  0  0  0  0
    0.5935    0.2888   -0.9824 C   0  0  0  0  0
   -0.2443    1.3873   -0.7900 C   0  0  0  0  0
    1.4963    0.2779   -2.0457 C   0  0  0  0  0
   -3.5977   -3.0925   -0.6957 C   0  0  0  0  0
   -3.1393   -0.3727   -0.2767 C   0  0  0  0  0
   -1.0641    3.6653   -1.4800 C   0  0  0  0  0
   -2.5702   -0.8206    2.1356 C   0  0  0  0  0
   -4.1670   -2.6595   -3.1023 C   0  0  0  0  0
    0.5213   -0.8770   -0.0447 C   0  0  0  0  0
   -2.7015   -5.2138   -1.2893 C   0  0  0  0  0
   -1.1721    1.4017    0.3015 N   0  0  0  0  0
    2.3625   -0.8294   -2.2628 N   0  0  0  0  0
    3.4901   -0.8325   -1.7154 O   0  0  0  0  0
    1.9721   -1.7690   -2.9950 O   0  0  0  0  0
   -3.5910    1.7508    1.1419 O   0  0  0  0  0
   -3.1217    2.0227   -1.3087 O   0  0  0  0  0
   -3.8173   -4.4240   -0.8833 O   0  0  0  0  0
   -2.8565    1.3592   -0.0467 S   0  0  0  0  0
  1  5  1  0  0  0
  2 10  1  0  0  0
  3  6  1  0  0  0
  4 12  1  0  0  0
  7 11  1  0  0  0
  8  9  1  0  0  0
  9 18  1  0  0  0
 10 19  1  0  0  0
 11 24  1  0  0  0
 13  5  1  0  0  0
 14  6  1  0  0  0
 15  7  1  0  0  0
 16  8  1  0  0  0
 17 24  1  0  0  0
 19 20  1  0  0  0
 25 12  1  0  0  0
 25 18  1  0  0  0
  1  2  2  0  0  0
  3 11  2  0  0  0
  4  7  2  0  0  0
  5  9  2  0  0  0
  6 12  2  0  0  0
  8 10  2  0  0  0
 19 21  2  0  0  0
 25 22  2  0  0  0
 25 23  2  0  0  0
M  CHG  2  19   1  20  -1
M  END
> <rmsd>
0.401420355

$$$$
ZINC07361050


 25 26  0  0  0  0  0  0  0  0999 V2000
    0.7131    2.4558   -2.7188 C   0  0  0  0  0
   -0.1843    2.4610   -1.6511 C   0  0  0  0  0
    1.5544    1.3611   -2.9176 C   0  0  0  0  0
   -3.7337   -2.5319    0.6037 C   0  0  0  0  0
   -3.5070   -1.1685    0.7909 C   0  0  0  0  0
   -3.0011   -0.9298   -1.5594 C   0  0  0  0  0
   -3.2277   -2.2934   -1.7467 C   0  0  0  0  0
    0.6010    0.2767   -0.9806 C   0  0  0  0  0
   -0.2404    1.3714   -0.7820 C   0  0  0  0  0
    1.4984    0.2716   -2.0485 C   0  0  0  0  0
   -3.5940   -3.0945   -0.6651 C   0  0  0  0  0
   -3.1407   -0.3674   -0.2906 C   0  0  0  0  0
    0.5363   -0.8906   -0.0440 C   0  0  0  0  0
   -1.6353   -2.7475   -3.6471 C   0  0  0  0  0
   -4.0659   -2.2784   -4.1239 C   0  0  0  0  0
   -5.1508   -4.8261   -1.1487 C   0  0  0  0  0
   -3.0730   -2.8786   -3.1116 C   0  0  0  0  0
   -1.1735    1.3983    0.3121 N   0  0  0  0  0
    2.3672   -0.8324   -2.2719 N   0  0  0  0  0
    3.4975   -0.8329   -1.7298 O   0  0  0  0  0
    1.9764   -1.7719   -3.0040 O   0  0  0  0  0
   -3.5934    1.7530    1.1324 O   0  0  0  0  0
   -3.1048    2.0315   -1.3138 O   0  0  0  0  0
   -3.8188   -4.4280   -0.8302 O   0  0  0  0  0
   -2.8557    1.3388   -0.0554 S   0  0  0  0  0
  1  2  1  0  0  0
  3 10  1  0  0  0
  4 11  1  0  0  0
  5 12  1  0  0  0
  6  7  1  0  0  0
  8  9  1  0  0  0
  9 18  1  0  0  0
 10 19  1  0  0  0
 11 24  1  0  0  0
 13  8  1  0  0  0
 14 17  1  0  0  0
 15 17  1  0  0  0
 16 24  1  0  0  0
 17  7  1  0  0  0
 19 20  1  0  0  0
 25 12  1  0  0  0
 25 18  1  0  0  0
  1  3  2  0  0  0
  2  9  2  0  0  0
  4  5  2  0  0  0
  6 12  2  0  0  0
  7 11  2  0  0  0
  8 10  2  0  0  0
 19 21  2  0  0  0
 25 22  2  0  0  0
 25 23  2  0  0  0
M  CHG  2  19   1  20  -1
M  END
> <rmsd>
0.396031499

$$$$
ZINC07361050


 25 26  0  0  0  0  0  0  0  0999 V2000
    0.7126    2.4554   -2.7198 C   0  0  0  0  0
   -0.1847    2.4608   -1.6518 C   0  0  0  0  0
    1.5542    1.3609   -2.9182 C   0  0  0  0  0
   -3.2298   -2.2927   -1.7470 C   0  0  0  0  0
   -3.0015   -0.9297   -1.5590 C   0  0  0  0  0
   -3.5072   -1.1691    0.7913 C   0  0  0  0  0
   -3.7357   -2.5323    0.6033 C   0  0  0  0  0
    0.6012    0.2770   -0.9806 C   0  0  0  0  0
   -0.2404    1.3716   -0.7823 C   0  0  0  0  0
    1.4986    0.2717   -2.0486 C   0  0  0  0  0
   -3.5970   -3.0941   -0.6659 C   0  0  0  0  0
   -3.1402   -0.3678   -0.2898 C   0  0  0  0  0
    0.5369   -0.8900   -0.0436 C   0  0  0  0  0
   -5.4714   -2.9378    2.3856 C   0  0  0  0  0
   -3.0414   -3.4110    2.8615 C   0  0  0  0  0
   -2.6964   -5.2944   -0.7237 C   0  0  0  0  0
   -4.1286   -3.3748    1.7717 C   0  0  0  0  0
   -1.1733    1.3986    0.3118 N   0  0  0  0  0
    2.3675   -0.8322   -2.2719 N   0  0  0  0  0
    3.4979   -0.8322   -1.7298 O   0  0  0  0  0
    1.9769   -1.7722   -3.0035 O   0  0  0  0  0
   -3.5931    1.7531    1.1324 O   0  0  0  0  0
   -3.1051    2.0308   -1.3139 O   0  0  0  0  0
   -3.8166   -4.4234   -0.8673 O   0  0  0  0  0
   -2.8556    1.3386   -0.0554 S   0  0  0  0  0
  1  2  1  0  0  0
  3 10  1  0  0  0
  4 11  1  0  0  0
  5 12  1  0  0  0
  6  7  1  0  0  0
  8  9  1  0  0  0
  9 18  1  0  0  0
 10 19  1  0  0  0
 11 24  1  0  0  0
 13  8  1  0  0  0
 14 17  1  0  0  0
 15 17  1  0  0  0
 16 24  1  0  0  0
 17  7  1  0  0  0
 19 20  1  0  0  0
 25 12  1  0  0  0
 25 18  1  0  0  0
  1  3  2  0  0  0
  2  9  2  0  0  0
  4  5  2  0  0  0
  6 12  2  0  0  0
  7 11  2  0  0  0
  8 10  2  0  0  0
 19 21  2  0  0  0
 25 22  2  0  0  0
 25 23  2  0  0  0
M  CHG  2  19   1  20  -1
M  END
> <rmsd>
0.395448923

$$$$
ZINC04834620


 25 26  0  0  0  0  0  0  0  0999 V2000
    0.5127    0.3511   -1.0951 C   0  0  0  0  0
    1.7936   -0.0996   -1.4143 C   0  0  0  0  0
   -3.0083   -0.8627    0.3267 C   0  0  0  0  0
   -5.3112   -0.1859    0.0513 C   0  0  0  0  0
   -3.3022   -2.0978   -0.2510 C   0  0  0  0  0
   -5.6051   -1.4210   -0.5265 C   0  0  0  0  0
    2.6867    1.0916    0.4884 C   0  0  0  0  0
    0.3188    1.1721    0.0158 C   0  0  0  0  0
    2.8806    0.2707   -0.6225 C   0  0  0  0  0
   -4.0129    0.0932    0.4781 C   0  0  0  0  0
    1.4059    1.5423    0.8075 C   0  0  0  0  0
   -4.6006   -2.3769   -0.6777 C   0  0  0  0  0
   -2.0364    1.8599   -0.5548 C   0  0  0  0  0
   -4.4504    2.5980   -0.8344 C   0  0  0  0  0
   -3.0371    3.5762    1.0126 C   0  0  0  0  0
    1.3377    3.7509    1.6867 C   0  0  0  0  0
   -3.3137    2.3431    0.1547 C   0  0  0  0  0
   -0.9873    1.6214    0.3267 N   0  0  0  0  0
    4.1843   -0.1894   -0.9466 N   0  0  0  0  0
    4.3364   -0.9281   -1.9495 O   0  0  0  0  0
   -2.0117    1.7191   -1.7758 O   0  0  0  0  0
    5.1486    0.1555   -0.2217 O   0  0  0  0  0
    1.2373    2.3442    1.8968 O   0  0  0  0  0
   -3.7245    1.3048    1.0436 O   0  0  0  0  0
   -4.9631   -3.9002   -1.3915 Cl  0  0  0  0  0
  1  8  1  0  0  0
  2  9  1  0  0  0
  3 10  1  0  0  0
  4  6  1  0  0  0
  5 12  1  0  0  0
  7 11  1  0  0  0
  8 18  1  0  0  0
  9 19  1  0  0  0
 10 24  1  0  0  0
 11 23  1  0  0  0
 12 25  1  0  0  0
 13 18  1  0  0  0
 14 17  1  0  0  0
 15 17  1  0  0  0
 16 23  1  0  0  0
 17 13  1  0  0  0
 17 24  1  0  0  0
 19 20  1  0  0  0
  1  2  2  0  0  0
  3  5  2  0  0  0
  4 10  2  0  0  0
  6 12  2  0  0  0
  7  9  2  0  0  0
  8 11  2  0  0  0
 13 21  2  0  0  0
 19 22  2  0  0  0
M  CHG  2  19   1  20  -1
M  END
> <rmsd>
0.617194235

$$$$
ZINC01121731


 25 26  0  0  0  0  0  0  0  0999 V2000
    3.1197    0.6464    0.0978 C   0  0  0  0  0
    2.7354    1.4946    1.1363 C   0  0  0  0  0
   -2.7538   -0.8706    0.3848 C   0  0  0  0  0
   -5.0450   -0.3721   -0.1977 C   0  0  0  0  0
   -2.8916   -2.1454   -0.1643 C   0  0  0  0  0
   -5.1827   -1.6470   -0.7468 C   0  0  0  0  0
    0.8281    0.5355   -0.6596 C   0  0  0  0  0
    0.4439    1.3836    0.3790 C   0  0  0  0  0
    2.1660    0.1669   -0.8003 C   0  0  0  0  0
   -3.8306    0.0160    0.3682 C   0  0  0  0  0
    1.3975    1.8631    1.2769 C   0  0  0  0  0
   -4.1061   -2.5336   -0.7301 C   0  0  0  0  0
   -1.8634    1.8777   -0.5029 C   0  0  0  0  0
   -4.2683    2.4292   -1.1059 C   0  0  0  0  0
   -3.1615    3.5784    0.8487 C   0  0  0  0  0
    1.0730    4.0938    2.0350 C   0  0  0  0  0
   -3.2478    2.2957    0.0238 C   0  0  0  0  0
   -0.9175    1.7500    0.5087 N   0  0  0  0  0
    2.5580   -0.6956   -1.8582 N   0  0  0  0  0
    3.7669   -1.0137   -1.9668 O   0  0  0  0  0
   -1.6792    1.6909   -1.7039 O   0  0  0  0  0
    1.6848   -1.1162   -2.6549 O   0  0  0  0  0
    1.0428    2.6927    2.2984 O   0  0  0  0  0
   -3.6952    1.2665    0.9057 O   0  0  0  0  0
   -4.2759   -4.1060   -1.4085 Cl  0  0  0  0  0
  1  9  1  0  0  0
  2 11  1  0  0  0
  3 10  1  0  0  0
  4  6  1  0  0  0
  5 12  1  0  0  0
  7  8  1  0  0  0
  8 18  1  0  0  0
  9 19  1  0  0  0
 10 24  1  0  0  0
 11 23  1  0  0  0
 12 25  1  0  0  0
 13 18  1  0  0  0
 14 17  1  0  0  0
 15 17  1  0  0  0
 16 23  1  0  0  0
 17 13  1  0  0  0
 17 24  1  0  0  0
 19 20  1  0  0  0
  1  2  2  0  0  0
  3  5  2  0  0  0
  4 10  2  0  0  0
  6 12  2  0  0  0
  7  9  2  0  0  0
  8 11  2  0  0  0
 13 21  2  0  0  0
 19 22  2  0  0  0
M  CHG  2  19   1  20  -1
M  END
> <rmsd>
0.372439861

$$$$
ZINC78541425


 24 26  0  0  0  0  0  0  0  0999 V2000
   -2.3445   -2.7718    0.0684 C   0  0  0  0  0
   -2.9981   -0.9938   -1.4310 C   0  0  0  0  0
   -3.6039   -2.7304    0.6667 C   0  0  0  0  0
   -4.2576   -0.9523   -0.8328 C   0  0  0  0  0
   -2.0416   -1.9035   -0.9804 C   0  0  0  0  0
   -4.5604   -1.8207    0.2161 C   0  0  0  0  0
   -0.7393   -1.9456   -1.5999 C   0  0  0  0  0
    1.3483   -1.5358   -2.0284 C   0  0  0  0  0
   -0.3378    1.0499   -0.4117 C   0  0  0  0  0
   -3.0693    2.6403    0.4195 C   0  0  0  0  0
   -5.5154    3.0546   -1.9114 C   0  0  0  0  0
   -5.5190    4.5515   -1.8068 C   0  0  0  0  0
   -5.0447    3.7196   -0.6514 C   0  0  0  0  0
    0.3385   -0.2619   -0.0756 C   0  0  0  0  0
   -1.6056    2.8924    0.6768 C   0  0  0  0  0
   -0.3949   -2.6861   -2.6291 N   0  0  0  0  0
    0.9333   -2.4254   -2.9018 N   0  0  0  0  0
    0.3276   -1.2054   -1.1893 N   0  0  0  0  0
   -3.6512    3.6952   -0.2688 N   0  0  0  0  0
   -0.8841    1.6120    0.7163 N   0  0  0  0  0
   -0.3780    1.5197   -1.5456 O   0  0  0  0  0
   -3.6532    1.6217    0.7798 O   0  0  0  0  0
    2.9125   -0.8843   -1.9421 S   0  0  0  0  0
   -6.1150   -1.7707    0.9523 Cl  0  0  0  0  0
  1  3  1  0  0  0
  2  5  1  0  0  0
  4  6  1  0  0  0
  5  7  1  0  0  0
  6 24  1  0  0  0
  7 18  1  0  0  0
  8 17  1  0  0  0
  8 18  1  0  0  0
  9 20  1  0  0  0
 10 19  1  0  0  0
 11 12  1  0  0  0
 11 13  1  0  0  0
 12 13  1  0  0  0
 13 19  1  0  0  0
 14  9  1  0  0  0
 14 18  1  0  0  0
 15 10  1  0  0  0
 15 20  1  0  0  0
 16 17  1  0  0  0
  1  5  2  0  0  0
  2  4  2  0  0  0
  3  6  2  0  0  0
  7 16  2  0  0  0
  8 23  2  0  0  0
  9 21  2  0  0  0
 10 22  2  0  0  0
M  CHG  1  23  -1
M  END
> <rmsd>
0.49677816

$$$$
ZINC78541425


 24 26  0  0  0  0  0  0  0  0999 V2000
   -2.3479   -2.7900   -0.0123 C   0  0  0  0  0
   -2.8979   -1.1236   -1.6728 C   0  0  0  0  0
   -3.6509   -2.7279    0.4817 C   0  0  0  0  0
   -4.2009   -1.0613   -1.1788 C   0  0  0  0  0
   -1.9714   -1.9878   -1.0896 C   0  0  0  0  0
   -4.5774   -1.8636   -0.1015 C   0  0  0  0  0
   -0.6239   -2.0513   -1.6014 C   0  0  0  0  0
    1.4870   -1.6401   -1.8918 C   0  0  0  0  0
   -0.3454    1.0209   -0.5867 C   0  0  0  0  0
   -3.1597    2.7201    0.6500 C   0  0  0  0  0
   -5.9257    5.3171    1.1118 C   0  0  0  0  0
   -5.7933    4.2577    2.1663 C   0  0  0  0  0
   -5.2969    3.9971    0.7744 C   0  0  0  0  0
    0.3145   -0.2561   -0.1126 C   0  0  0  0  0
   -1.7124    2.9120    0.2750 C   0  0  0  0  0
   -0.1925   -2.8524   -2.5492 N   0  0  0  0  0
    1.1506   -2.5908   -2.7340 N   0  0  0  0  0
    0.4003   -1.2705   -1.1587 N   0  0  0  0  0
   -3.8836    3.8931    0.4909 N   0  0  0  0  0
   -0.9842    1.6475    0.4555 N   0  0  0  0  0
   -0.3006    1.4150   -1.7489 O   0  0  0  0  0
   -3.6202    1.6511    1.0419 O   0  0  0  0  0
    3.0334   -0.9616   -1.7270 S   0  0  0  0  0
   -6.1856   -1.7883    0.5061 Cl  0  0  0  0  0
  1  3  1  0  0  0
  2  5  1  0  0  0
  4  6  1  0  0  0
  5  7  1  0  0  0
  6 24  1  0  0  0
  7 18  1  0  0  0
  8 17  1  0  0  0
  8 18  1  0  0  0
  9 20  1  0  0  0
 10 19  1  0  0  0
 11 12  1  0  0  0
 11 13  1  0  0  0
 12 13  1  0  0  0
 13 19  1  0  0  0
 14  9  1  0  0  0
 14 18  1  0  0  0
 15 10  1  0  0  0
 15 20  1  0  0  0
 16 17  1  0  0  0
  1  5  2  0  0  0
  2  4  2  0  0  0
  3  6  2  0  0  0
  7 16  2  0  0  0
  8 23  2  0  0  0
  9 21  2  0  0  0
 10 22  2  0  0  0
M  CHG  1  23  -1
M  END
> <rmsd>
0.536973715

$$$$
ZINC89726708


 26 27  0  0  0  0  0  0  0  0999 V2000
    3.3104   -2.5404    2.6271 C   0  0  0  0  0
    4.5529   -2.6583    2.0043 C   0  0  0  0  0
    2.3145   -1.7501    2.0531 C   0  0  0  0  0
   -3.5741   -0.9583    0.8113 C   0  0  0  0  0
    4.7995   -1.9858    0.8074 C   0  0  0  0  0
   -3.4534   -2.3465    0.7492 C   0  0  0  0  0
   -2.8547   -2.1901   -1.5862 C   0  0  0  0  0
    2.5613   -1.0776    0.8563 C   0  0  0  0  0
   -3.3353   -0.1859   -0.3254 C   0  0  0  0  0
    3.8038   -1.1955    0.2333 C   0  0  0  0  0
   -3.0937   -2.9624   -0.4495 C   0  0  0  0  0
   -2.9755   -0.8017   -1.5241 C   0  0  0  0  0
    0.2751    3.4409    1.0127 C   0  0  0  0  0
   -4.5405    1.8392   -1.2371 C   0  0  0  0  0
    1.4633   -0.2298    0.2630 C   0  0  0  0  0
    1.3323    1.1465    0.9309 C   0  0  0  0  0
   -2.0815    1.9643   -0.4944 C   0  0  0  0  0
    0.2746    2.0802    0.3268 C   0  0  0  0  0
   -3.4690    1.3396   -0.2535 C   0  0  0  0  0
    4.0783   -0.5174   -0.9863 N   0  0  0  0  0
   -1.0805    1.4848    0.4935 N   0  0  0  0  0
    3.8298   -1.0960   -2.0703 O   0  0  0  0  0
    4.5604    0.6390   -0.9412 O   0  0  0  0  0
   -3.9035    1.7124    1.0618 O   0  0  0  0  0
   -2.9771   -4.2954   -0.5089 F   0  0  0  0  0
   -2.7442   -0.0679   -2.6217 F   0  0  0  0  0
  1  2  1  0  0  0
  3  8  1  0  0  0
  4  9  1  0  0  0
  5 10  1  0  0  0
  6 11  1  0  0  0
  7 12  1  0  0  0
 10 20  1  0  0  0
 11 25  1  0  0  0
 12 26  1  0  0  0
 13 18  1  0  0  0
 14 19  1  0  0  0
 15  8  1  0  0  0
 15 16  1  0  0  0
 16 18  1  0  0  0
 17 19  1  0  0  0
 17 21  1  0  0  0
 18 21  1  0  0  0
 19  9  1  0  0  0
 19 24  1  0  0  0
 20 22  1  0  0  0
  1  3  2  0  0  0
  2  5  2  0  0  0
  4  6  2  0  0  0
  7 11  2  0  0  0
  8 10  2  0  0  0
  9 12  2  0  0  0
 20 23  2  0  0  0
M  CHG  3  20   1  21   1  22  -1
M  END
> <rmsd>
0.397607774

$$$$
ZINC33253632


 25 26  0  0  0  0  0  0  0  0999 V2000
   -0.1067    2.5014   -1.5739 C   0  0  0  0  0
    0.8689    2.5244   -2.5704 C   0  0  0  0  0
   -3.5400   -2.5659    0.5393 C   0  0  0  0  0
   -2.9054   -2.3072   -1.7774 C   0  0  0  0  0
   -3.3763   -1.1949    0.7373 C   0  0  0  0  0
   -2.7417   -0.9361   -1.5795 C   0  0  0  0  0
    0.8579    0.4764   -0.6761 C   0  0  0  0  0
    1.8336    0.4994   -1.6727 C   0  0  0  0  0
   -0.1122    1.4775   -0.6266 C   0  0  0  0  0
    1.8391    1.5234   -2.6199 C   0  0  0  0  0
   -3.3045   -3.1221   -0.7181 C   0  0  0  0  0
   -2.9772   -0.3801   -0.3221 C   0  0  0  0  0
    2.8486   -0.5705   -1.7022 C   0  0  0  0  0
    3.8301    3.7168   -3.1695 C   0  0  0  0  0
    1.8981    1.7883   -5.8698 C   0  0  0  0  0
    4.0660    2.2671   -3.4249 C   0  0  0  0  0
    2.5892    0.8915   -4.8998 C   0  0  0  0  0
   -1.1116    1.4538    0.3927 N   0  0  0  0  0
    2.8179    1.5641   -3.6378 N   0  0  0  0  0
    2.6041   -1.6336   -2.3839 O   0  0  0  0  0
    3.9415   -0.4020   -1.0449 O   0  0  0  0  0
   -3.5973    1.7228    1.0632 O   0  0  0  0  0
   -2.9650    2.0181   -1.3477 O   0  0  0  0  0
   -3.4604   -4.4389   -0.9079 F   0  0  0  0  0
   -2.7681    1.3594   -0.0707 S   0  0  0  0  0
  1  9  1  0  0  0
  2 10  1  0  0  0
  3 11  1  0  0  0
  4  6  1  0  0  0
  5 12  1  0  0  0
  7  8  1  0  0  0
  8 13  1  0  0  0
  9 18  1  0  0  0
 10 19  1  0  0  0
 11 24  1  0  0  0
 13 20  1  0  0  0
 14 16  1  0  0  0
 15 17  1  0  0  0
 16 19  1  0  0  0
 17 19  1  0  0  0
 25 12  1  0  0  0
 25 18  1  0  0  0
  1  2  2  0  0  0
  3  5  2  0  0  0
  4 11  2  0  0  0
  6 12  2  0  0  0
  7  9  2  0  0  0
  8 10  2  0  0  0
 13 21  2  0  0  0
 25 22  2  0  0  0
 25 23  2  0  0  0
M  CHG  1  20  -1
M  END
> <rmsd>
0.5262959

$$$$
ZINC33253632


 25 26  0  0  0  0  0  0  0  0999 V2000
   -0.0380    2.7671   -1.2898 C   0  0  0  0  0
    1.0212    2.8839   -2.1897 C   0  0  0  0  0
   -3.2445   -2.5883    0.4331 C   0  0  0  0  0
   -2.4194   -2.2382   -1.8104 C   0  0  0  0  0
   -3.2080   -1.2127    0.6613 C   0  0  0  0  0
   -2.3830   -0.8626   -1.5824 C   0  0  0  0  0
    0.9950    0.8062   -0.3282 C   0  0  0  0  0
    2.0543    0.9229   -1.2282 C   0  0  0  0  0
   -0.0512    1.7283   -0.3589 C   0  0  0  0  0
    2.0674    1.9618   -2.1590 C   0  0  0  0  0
   -2.8501   -3.1011   -0.8027 C   0  0  0  0  0
   -2.7773   -0.3499   -0.3465 C   0  0  0  0  0
    3.1484   -0.0648   -1.1741 C   0  0  0  0  0
    3.9225    4.3120   -2.4938 C   0  0  0  0  0
    2.4073    2.2909   -5.3857 C   0  0  0  0  0
    4.2942    2.8898   -2.7423 C   0  0  0  0  0
    3.0735    1.4322   -4.3652 C   0  0  0  0  0
   -1.1360    1.6087    0.5615 N   0  0  0  0  0
    3.1303    2.0968   -3.0797 N   0  0  0  0  0
    3.0526   -1.1307   -1.8878 O   0  0  0  0  0
    4.1588    0.1751   -0.4150 O   0  0  0  0  0
   -3.6867    1.6727    0.9980 O   0  0  0  0  0
   -2.8581    2.0608   -1.3392 O   0  0  0  0  0
   -2.8838   -4.4223   -1.0213 F   0  0  0  0  0
   -2.7297    1.3955   -0.0569 S   0  0  0  0  0
  1  9  1  0  0  0
  2 10  1  0  0  0
  3 11  1  0  0  0
  4  6  1  0  0  0
  5 12  1  0  0  0
  7  8  1  0  0  0
  8 13  1  0  0  0
  9 18  1  0  0  0
 10 19  1  0  0  0
 11 24  1  0  0  0
 13 20  1  0  0  0
 14 16  1  0  0  0
 15 17  1  0  0  0
 16 19  1  0  0  0
 17 19  1  0  0  0
 25 12  1  0  0  0
 25 18  1  0  0  0
  1  2  2  0  0  0
  3  5  2  0  0  0
  4 11  2  0  0  0
  6 12  2  0  0  0
  7  9  2  0  0  0
  8 10  2  0  0  0
 13 21  2  0  0  0
 25 22  2  0  0  0
 25 23  2  0  0  0
M  CHG  1  20  -1
M  END
> <rmsd>
0.707554519

$$$$
ZINC39927087


 27 30  0  0  0  0  0  0  0  0999 V2000
   -2.0409   -0.9512   -0.7149 C   0  0  0  0  0
   -2.7906   -2.1217   -0.5999 C   0  0  0  0  0
   -4.5274   -0.8964    0.5487 C   0  0  0  0  0
   -2.5344    0.2468   -0.1981 C   0  0  0  0  0
   -4.0339   -2.0944    0.0319 C   0  0  0  0  0
   -3.7777    0.2741    0.4337 C   0  0  0  0  0
   -6.7141    1.3707   -2.7693 C   0  0  0  0  0
   -6.6880    2.7849   -2.4265 C   0  0  0  0  0
   -5.6167    0.6350   -3.0062 C   0  0  0  0  0
   -5.5638    3.5087   -2.3097 C   0  0  0  0  0
   -1.2483    1.7664   -1.7316 C   0  0  0  0  0
    0.0973    1.7377   -1.7219 C   0  0  0  0  0
   -4.3482    1.3441   -2.9008 C   0  0  0  0  0
   -4.3217    2.7863   -2.5517 C   0  0  0  0  0
    2.3258   -0.2827   -2.5408 C   0  0  0  0  0
   -1.7219    1.4847   -0.3302 C   0  0  0  0  0
   -2.1977    2.0529   -2.8374 C   0  0  0  0  0
    1.0374    1.9635   -2.8544 C   0  0  0  0  0
    2.3720    1.2450   -2.6715 C   0  0  0  0  0
    0.6278    1.4685   -0.4762 N   0  0  0  0  0
   -3.1500    0.9299   -3.0630 N   0  0  0  0  0
   -3.1086    3.1872   -2.5170 N   0  0  0  0  0
   -0.4160    1.3192    0.3587 N   0  0  0  0  0
    3.2410   -0.7671   -1.8142 O   0  0  0  0  0
    1.4049   -0.8746   -3.1675 O   0  0  0  0  0
   -4.7655   -3.2366    0.1439 O   0  0  0  0  0
   -4.2748    1.4359    0.9433 O   0  0  0  0  0
  1  4  1  0  0  0
  2  5  1  0  0  0
  3  6  1  0  0  0
  5 26  1  0  0  0
  6 27  1  0  0  0
  7  8  1  0  0  0
  9 13  1  0  0  0
 10 14  1  0  0  0
 12 20  1  0  0  0
 13 14  1  0  0  0
 15 24  1  0  0  0
 16  4  1  0  0  0
 16 11  1  0  0  0
 16 23  1  0  0  0
 17 11  1  0  0  0
 17 21  1  0  0  0
 17 22  1  0  0  0
 18 12  1  0  0  0
 18 19  1  0  0  0
 19 15  1  0  0  0
  1  2  2  0  0  0
  3  5  2  0  0  0
  4  6  2  0  0  0
  7  9  2  0  0  0
  8 10  2  0  0  0
 11 12  2  0  0  0
 13 21  2  0  0  0
 14 22  2  0  0  0
 15 25  2  0  0  0
 23 20  2  0  0  0
M  CHG  4  21   1  22   1  23   1  24  -1
M  END
> <rmsd>
0.58902508

$$$$
ZINC35024383


 24 26  0  0  0  0  0  0  0  0999 V2000
   -3.3355   -3.0312   -0.4539 C   0  0  0  0  0
   -3.5964   -2.2736   -1.5956 C   0  0  0  0  0
   -3.0754   -2.3958    0.7603 C   0  0  0  0  0
   -3.5971   -0.8807   -1.5232 C   0  0  0  0  0
   -3.0760   -1.0028    0.8327 C   0  0  0  0  0
   -3.3368   -0.2452   -0.3091 C   0  0  0  0  0
    2.7578   -0.5277   -0.1820 C   0  0  0  0  0
    3.0292   -1.3193    0.8770 C   0  0  0  0  0
    1.1677    1.3248   -0.8575 C   0  0  0  0  0
    3.3932   -0.7934   -1.5448 C   0  0  0  0  0
   -1.9558    1.8451   -0.5063 C   0  0  0  0  0
    2.3605   -1.2292    2.2358 C   0  0  0  0  0
    0.3722    1.8216    0.3857 C   0  0  0  0  0
    1.4056    1.0213    1.2098 C   0  0  0  0  0
   -3.3373    1.2638   -0.2307 C   0  0  0  0  0
    1.8709    0.4939   -0.0601 N   0  0  0  0  0
   -3.7754    1.7356    1.0600 N   0  0  0  0  0
   -1.0230    1.3843    0.3985 N   0  0  0  0  0
    2.7304   -1.5593   -2.2903 O   0  0  0  0  0
    1.1342    1.5151   -2.0506 O   0  0  0  0  0
    4.4911   -0.2094   -1.7326 O   0  0  0  0  0
   -1.7403    2.6537   -1.4069 O   0  0  0  0  0
    0.7611   -0.3423    2.2077 S   0  0  0  0  0
    4.1915   -2.6142    0.8007 Cl  0  0  0  0  0
  1  2  1  0  0  0
  3  5  1  0  0  0
  4  6  1  0  0  0
  7 10  1  0  0  0
  7 16  1  0  0  0
  8 24  1  0  0  0
  9 16  1  0  0  0
 10 19  1  0  0  0
 11 18  1  0  0  0
 12  8  1  0  0  0
 12 23  1  0  0  0
 13  9  1  0  0  0
 13 14  1  0  0  0
 13 18  1  0  0  0
 14 16  1  0  0  0
 14 23  1  0  0  0
 15  6  1  0  0  0
 15 11  1  0  0  0
 15 17  1  0  0  0
  1  3  2  0  0  0
  2  4  2  0  0  0
  5  6  2  0  0  0
  7  8  2  0  0  0
  9 20  2  0  0  0
 10 21  2  0  0  0
 11 22  2  0  0  0
M  CHG  1  19  -1
M  END
> <rmsd>
0.300747067

$$$$
ZINC35024383


 24 26  0  0  0  0  0  0  0  0999 V2000
   -2.8713   -3.0239   -0.5610 C   0  0  0  0  0
   -3.1053   -2.2653   -1.7079 C   0  0  0  0  0
   -2.7552   -2.3958    0.6790 C   0  0  0  0  0
   -3.2232   -0.8786   -1.6148 C   0  0  0  0  0
   -2.8732   -1.0091    0.7722 C   0  0  0  0  0
   -3.1072   -0.2505   -0.3748 C   0  0  0  0  0
    2.9635   -0.0537    0.2159 C   0  0  0  0  0
    3.2169   -0.8436    1.2806 C   0  0  0  0  0
    1.2853    1.6814   -0.5517 C   0  0  0  0  0
    3.7191   -0.2395   -1.0978 C   0  0  0  0  0
   -1.8875    1.9461   -0.4337 C   0  0  0  0  0
    2.4426   -0.8353    2.5852 C   0  0  0  0  0
    0.3609    2.0875    0.6340 C   0  0  0  0  0
    1.3902    1.3540    1.5229 C   0  0  0  0  0
   -3.2347    1.2519   -0.2739 C   0  0  0  0  0
    1.9908    0.8920    0.2848 N   0  0  0  0  0
   -3.8053    1.6602    0.9862 N   0  0  0  0  0
   -0.9916    1.5413    0.5330 N   0  0  0  0  0
    3.1780   -1.0394   -1.9035 O   0  0  0  0  0
    1.3266    1.8937   -1.7408 O   0  0  0  0  0
    4.7776    0.4331   -1.1919 O   0  0  0  0  0
   -1.6704    2.7880   -1.3029 O   0  0  0  0  0
    0.7839   -0.0771    2.4477 S   0  0  0  0  0
    4.4819   -2.0408    1.2744 Cl  0  0  0  0  0
  1  2  1  0  0  0
  3  5  1  0  0  0
  4  6  1  0  0  0
  7 10  1  0  0  0
  7 16  1  0  0  0
  8 24  1  0  0  0
  9 16  1  0  0  0
 10 19  1  0  0  0
 11 18  1  0  0  0
 12  8  1  0  0  0
 12 23  1  0  0  0
 13  9  1  0  0  0
 13 14  1  0  0  0
 13 18  1  0  0  0
 14 16  1  0  0  0
 14 23  1  0  0  0
 15  6  1  0  0  0
 15 11  1  0  0  0
 15 17  1  0  0  0
  1  3  2  0  0  0
  2  4  2  0  0  0
  5  6  2  0  0  0
  7  8  2  0  0  0
  9 20  2  0  0  0
 10 21  2  0  0  0
 11 22  2  0  0  0
M  CHG  1  19  -1
M  END
> <rmsd>
0.539937556

$$$$
ZINC28003483


 24 25  0  0  0  0  0  0  0  0999 V2000
   -2.3437   -2.7772    0.0632 C   0  0  0  0  0
   -3.0017   -0.9943   -1.4285 C   0  0  0  0  0
   -3.6025   -2.7402    0.6627 C   0  0  0  0  0
   -4.2607   -0.9574   -0.8292 C   0  0  0  0  0
   -2.0432   -1.9042   -0.9823 C   0  0  0  0  0
   -4.5611   -1.8303    0.2166 C   0  0  0  0  0
   -0.7414   -1.9433   -1.6033 C   0  0  0  0  0
    1.3456   -1.5324   -2.0327 C   0  0  0  0  0
   -0.3375    1.0501   -0.4113 C   0  0  0  0  0
   -3.0680    2.6425    0.4197 C   0  0  0  0  0
   -4.5007    3.8334   -3.1270 C   0  0  0  0  0
    0.3371   -0.2628   -0.0763 C   0  0  0  0  0
   -1.6042    2.8926    0.6784 C   0  0  0  0  0
   -5.2756    3.1180   -2.0295 C   0  0  0  0  0
   -5.0413    3.7253   -0.6515 C   0  0  0  0  0
   -0.3985   -2.6800   -2.6358 N   0  0  0  0  0
    0.9293   -2.4186   -2.9090 N   0  0  0  0  0
    0.3261   -1.2050   -1.1911 N   0  0  0  0  0
   -0.8842    1.6114    0.7169 N   0  0  0  0  0
   -3.6482    3.6989   -0.2679 N   0  0  0  0  0
   -0.3763    1.5214   -1.5447 O   0  0  0  0  0
   -3.6532    1.6241    0.7783 O   0  0  0  0  0
    2.9105   -0.8835   -1.9433 S   0  0  0  0  0
   -6.1142   -1.7846    0.9561 Cl  0  0  0  0  0
  1  5  1  0  0  0
  2  4  1  0  0  0
  3  6  1  0  0  0
  5  7  1  0  0  0
  6 24  1  0  0  0
  7 18  1  0  0  0
  8 17  1  0  0  0
  8 18  1  0  0  0
  9 19  1  0  0  0
 10 20  1  0  0  0
 11 14  1  0  0  0
 12  9  1  0  0  0
 12 18  1  0  0  0
 13 10  1  0  0  0
 13 19  1  0  0  0
 14 15  1  0  0  0
 15 20  1  0  0  0
 16 17  1  0  0  0
  1  3  2  0  0  0
  2  5  2  0  0  0
  4  6  2  0  0  0
  7 16  2  0  0  0
  8 23  2  0  0  0
  9 21  2  0  0  0
 10 22  2  0  0  0
M  CHG  1  23  -1
M  END
> <rmsd>
0.498619348

$$$$
ZINC28003483


 24 25  0  0  0  0  0  0  0  0999 V2000
   -2.3433   -2.7772    0.0640 C   0  0  0  0  0
   -3.0014   -0.9943   -1.4278 C   0  0  0  0  0
   -3.6021   -2.7402    0.6635 C   0  0  0  0  0
   -4.2603   -0.9574   -0.8284 C   0  0  0  0  0
   -2.0428   -1.9043   -0.9816 C   0  0  0  0  0
   -4.5607   -1.8303    0.2174 C   0  0  0  0  0
   -0.7411   -1.9433   -1.6025 C   0  0  0  0  0
    1.3460   -1.5324   -2.0319 C   0  0  0  0  0
   -0.3371    1.0501   -0.4106 C   0  0  0  0  0
   -3.0676    2.6425    0.4204 C   0  0  0  0  0
   -5.5566    5.8012    0.7121 C   0  0  0  0  0
    0.3375   -0.2628   -0.0755 C   0  0  0  0  0
   -1.6038    2.8926    0.6791 C   0  0  0  0  0
   -5.9258    4.3539    0.4190 C   0  0  0  0  0
   -5.0409    3.7253   -0.6507 C   0  0  0  0  0
   -0.3981   -2.6800   -2.6350 N   0  0  0  0  0
    0.9297   -2.4186   -2.9083 N   0  0  0  0  0
    0.3265   -1.2050   -1.1904 N   0  0  0  0  0
   -0.8838    1.6114    0.7177 N   0  0  0  0  0
   -3.6478    3.6989   -0.2672 N   0  0  0  0  0
   -0.3760    1.5214   -1.5440 O   0  0  0  0  0
   -3.6528    1.6241    0.7790 O   0  0  0  0  0
    2.9109   -0.8835   -1.9426 S   0  0  0  0  0
   -6.1139   -1.7846    0.9569 Cl  0  0  0  0  0
  1  5  1  0  0  0
  2  4  1  0  0  0
  3  6  1  0  0  0
  5  7  1  0  0  0
  6 24  1  0  0  0
  7 18  1  0  0  0
  8 17  1  0  0  0
  8 18  1  0  0  0
  9 19  1  0  0  0
 10 20  1  0  0  0
 11 14  1  0  0  0
 12  9  1  0  0  0
 12 18  1  0  0  0
 13 10  1  0  0  0
 13 19  1  0  0  0
 14 15  1  0  0  0
 15 20  1  0  0  0
 16 17  1  0  0  0
  1  3  2  0  0  0
  2  5  2  0  0  0
  4  6  2  0  0  0
  7 16  2  0  0  0
  8 23  2  0  0  0
  9 21  2  0  0  0
 10 22  2  0  0  0
M  CHG  1  23  -1
M  END
> <rmsd>
0.498619467

$$$$
ZINC28003483


 24 25  0  0  0  0  0  0  0  0999 V2000
   -2.2540   -2.9147   -0.1005 C   0  0  0  0  0
   -2.7825   -1.3074   -1.8251 C   0  0  0  0  0
   -3.5786   -2.8827    0.3352 C   0  0  0  0  0
   -4.1072   -1.2755   -1.3895 C   0  0  0  0  0
   -1.8559   -2.1270   -1.1806 C   0  0  0  0  0
   -4.5053   -2.0632   -0.3092 C   0  0  0  0  0
   -0.4860   -2.1610   -1.6320 C   0  0  0  0  0
    1.6226   -1.6930   -1.8419 C   0  0  0  0  0
   -0.3410    0.9439   -0.6921 C   0  0  0  0  0
   -3.2559    2.5915    0.3686 C   0  0  0  0  0
   -7.6654    2.3497   -1.2035 C   0  0  0  0  0
    0.3323   -0.3001   -0.1533 C   0  0  0  0  0
   -1.7989    2.8160    0.0540 C   0  0  0  0  0
   -6.1449    2.3538   -1.2728 C   0  0  0  0  0
   -5.5153    3.3759   -0.3341 C   0  0  0  0  0
    0.0097   -2.9714   -2.5399 N   0  0  0  0  0
    1.3512   -2.6736   -2.6734 N   0  0  0  0  0
    0.4947   -1.3390   -1.1658 N   0  0  0  0  0
   -1.0444    1.5788    0.3024 N   0  0  0  0  0
   -4.0728    3.3880   -0.4211 N   0  0  0  0  0
   -0.2541    1.3080   -1.8617 O   0  0  0  0  0
   -3.6491    1.7971    1.2188 O   0  0  0  0  0
    3.1399   -0.9659   -1.6256 S   0  0  0  0  0
   -6.1396   -2.0236    0.2283 Cl  0  0  0  0  0
  1  5  1  0  0  0
  2  4  1  0  0  0
  3  6  1  0  0  0
  5  7  1  0  0  0
  6 24  1  0  0  0
  7 18  1  0  0  0
  8 17  1  0  0  0
  8 18  1  0  0  0
  9 19  1  0  0  0
 10 20  1  0  0  0
 11 14  1  0  0  0
 12  9  1  0  0  0
 12 18  1  0  0  0
 13 10  1  0  0  0
 13 19  1  0  0  0
 14 15  1  0  0  0
 15 20  1  0  0  0
 16 17  1  0  0  0
  1  3  2  0  0  0
  2  5  2  0  0  0
  4  6  2  0  0  0
  7 16  2  0  0  0
  8 23  2  0  0  0
  9 21  2  0  0  0
 10 22  2  0  0  0
M  CHG  1  23  -1
M  END
> <rmsd>
0.665954828

$$$$
ZINC02055806


 26 29  0  0  0  0  0  0  0  0999 V2000
   -3.7336   -2.4984    0.9377 C   0  0  0  0  0
   -3.3992   -1.1509    0.6610 C   0  0  0  0  0
   -3.8640   -3.4510   -0.0888 C   0  0  0  0  0
    1.6154    1.7691   -1.7344 C   0  0  0  0  0
    1.6932   -0.4103   -0.6946 C   0  0  0  0  0
   -2.8401   -0.2833   -3.4759 C   0  0  0  0  0
    0.5013    2.0978   -0.9622 C   0  0  0  0  0
    0.5789   -0.0816    0.0776 C   0  0  0  0  0
   -2.6797    0.7616   -2.5483 C   0  0  0  0  0
   -3.1865   -0.7286   -0.6689 C   0  0  0  0  0
   -3.3301   -1.7162   -1.6358 C   0  0  0  0  0
   -3.6532   -3.0225   -1.3813 C   0  0  0  0  0
    2.2113    0.5151   -1.6006 C   0  0  0  0  0
   -3.1693   -1.5246   -2.9791 C   0  0  0  0  0
   -0.0169    1.1725   -0.0563 C   0  0  0  0  0
   -2.8489    0.5515   -1.1587 C   0  0  0  0  0
   -3.7005   -3.7197   -2.6850 C   0  0  0  0  0
    3.3875    0.1683   -2.4149 C   0  0  0  0  0
   -3.3923   -2.7387   -3.6318 N   0  0  0  0  0
   -1.1666    1.5107    0.7387 N   0  0  0  0  0
    3.9189   -0.9961   -2.2718 O   0  0  0  0  0
   -3.9597   -4.8967   -2.8432 O   0  0  0  0  0
    3.8467    1.0409   -3.2433 O   0  0  0  0  0
   -3.7152    1.8784    0.8942 O   0  0  0  0  0
   -2.4330    3.1109   -0.8768 O   0  0  0  0  0
   -2.6297    1.9097   -0.0769 S   0  0  0  0  0
  1  2  1  0  0  0
  3 12  1  0  0  0
  4 13  1  0  0  0
  5  8  1  0  0  0
  6  9  1  0  0  0
  7 15  1  0  0  0
 10 11  1  0  0  0
 10 16  1  0  0  0
 11 14  1  0  0  0
 12 17  1  0  0  0
 13 18  1  0  0  0
 14 19  1  0  0  0
 15 20  1  0  0  0
 17 19  1  0  0  0
 18 21  1  0  0  0
 26 16  1  0  0  0
 26 20  1  0  0  0
  1  3  2  0  0  0
  2 10  2  0  0  0
  4  7  2  0  0  0
  5 13  2  0  0  0
  6 14  2  0  0  0
  8 15  2  0  0  0
  9 16  2  0  0  0
 11 12  2  0  0  0
 17 22  2  0  0  0
 18 23  2  0  0  0
 26 24  2  0  0  0
 26 25  2  0  0  0
M  CHG  1  21  -1
M  END
> <rmsd>
0.494401723

$$$$
ZINC59168921


 26 29  0  0  0  0  0  0  0  0999 V2000
   -4.4428   -3.3509   -0.9270 C   0  0  0  0  0
    2.2917    3.6920    2.9519 C   0  0  0  0  0
   -5.3720   -2.4418   -0.4212 C   0  0  0  0  0
   -3.0941   -3.2283   -0.5928 C   0  0  0  0  0
    3.6121    3.5146    2.5389 C   0  0  0  0  0
    1.2429    3.2625    2.1385 C   0  0  0  0  0
   -4.9525   -1.4102    0.4186 C   0  0  0  0  0
   -2.6746   -2.1967    0.2470 C   0  0  0  0  0
    3.8839    2.9078    1.3127 C   0  0  0  0  0
    1.5146    2.6558    0.9123 C   0  0  0  0  0
   -3.6038   -1.2876    0.7528 C   0  0  0  0  0
    2.8351    2.4784    0.4993 C   0  0  0  0  0
   -2.9957    1.1455    1.0081 C   0  0  0  0  0
   -2.0699    2.8666    0.0793 C   0  0  0  0  0
    3.4857   -0.1513   -1.8554 C   0  0  0  0  0
    0.3797    2.2023    0.0548 C   0  0  0  0  0
   -3.1456   -0.1607    1.6699 C   0  0  0  0  0
    3.8957    0.6927   -0.6593 C   0  0  0  0  0
   -3.9502    1.9960    0.6693 N   0  0  0  0  0
   -3.3519    3.1065    0.0707 N   0  0  0  0  0
   -1.8035    1.6727    0.6449 N   0  0  0  0  0
   -0.4703    1.2105    0.7774 N   0  0  0  0  0
    3.6471    0.3998   -2.9807 O   0  0  0  0  0
    3.0420   -1.2996   -1.5741 O   0  0  0  0  0
    3.1181    1.8878   -0.6954 O   0  0  0  0  0
   -0.6604    3.6787   -0.4453 S   0  0  0  0  0
  1  3  1  0  0  0
  2  5  1  0  0  0
  4  8  1  0  0  0
  6 10  1  0  0  0
  7 11  1  0  0  0
  9 12  1  0  0  0
 12 25  1  0  0  0
 13 21  1  0  0  0
 14 21  1  0  0  0
 14 26  1  0  0  0
 15 23  1  0  0  0
 16 10  1  0  0  0
 16 22  1  0  0  0
 16 26  1  0  0  0
 17 11  1  0  0  0
 17 13  1  0  0  0
 18 15  1  0  0  0
 18 25  1  0  0  0
 19 20  1  0  0  0
 21 22  1  0  0  0
  1  4  2  0  0  0
  2  6  2  0  0  0
  3  7  2  0  0  0
  5  9  2  0  0  0
  8 11  2  0  0  0
 10 12  2  0  0  0
 13 19  2  0  0  0
 14 20  2  0  0  0
 15 24  2  0  0  0
M  CHG  1  23  -1
M  END
> <rmsd>
0.654389858

$$$$
ZINC32962261


 24 25  0  0  0  0  0  0  0  0999 V2000
   -2.8961   -2.2882   -1.7930 C   0  0  0  0  0
   -0.1170    2.4912   -1.5866 C   0  0  0  0  0
    0.8554    2.5089   -2.5863 C   0  0  0  0  0
   -2.7403   -0.9199   -1.5715 C   0  0  0  0  0
   -3.2891   -3.1236   -0.7473 C   0  0  0  0  0
    0.8548    0.4751   -0.6768 C   0  0  0  0  0
    1.8273    0.4927   -1.6766 C   0  0  0  0  0
   -3.3702   -1.2225    0.7413 C   0  0  0  0  0
   -0.1174    1.4743   -0.6317 C   0  0  0  0  0
    1.8276    1.5097   -2.6314 C   0  0  0  0  0
   -2.9773   -0.3871   -0.3043 C   0  0  0  0  0
   -3.5262   -2.5908    0.5197 C   0  0  0  0  0
    2.8445   -0.5751   -1.7013 C   0  0  0  0  0
   -3.6222   -0.6436    2.0990 C   0  0  0  0  0
    4.0504    2.2521   -3.4489 C   0  0  0  0  0
    2.5720    0.8623   -4.9089 C   0  0  0  0  0
   -1.1135    1.4561    0.3909 N   0  0  0  0  0
    2.8031    1.5449   -3.6526 N   0  0  0  0  0
    2.6002   -1.6439   -2.3742 O   0  0  0  0  0
    3.9391   -0.3994   -1.0486 O   0  0  0  0  0
   -3.5977    1.7248    1.0672 O   0  0  0  0  0
   -2.9735    2.0034   -1.3479 O   0  0  0  0  0
   -2.7712    1.3547   -0.0667 S   0  0  0  0  0
   -4.0058   -3.6611    1.7871 Cl  0  0  0  0  0
  1  4  1  0  0  0
  2  9  1  0  0  0
  3 10  1  0  0  0
  5 12  1  0  0  0
  6  7  1  0  0  0
  7 13  1  0  0  0
  8 11  1  0  0  0
  9 17  1  0  0  0
 10 18  1  0  0  0
 12 24  1  0  0  0
 13 19  1  0  0  0
 14  8  1  0  0  0
 15 18  1  0  0  0
 16 18  1  0  0  0
 23 11  1  0  0  0
 23 17  1  0  0  0
  1  5  2  0  0  0
  2  3  2  0  0  0
  4 11  2  0  0  0
  6  9  2  0  0  0
  7 10  2  0  0  0
  8 12  2  0  0  0
 13 20  2  0  0  0
 23 21  2  0  0  0
 23 22  2  0  0  0
M  CHG  1  19  -1
M  END
> <rmsd>
0.532935739

$$$$
ZINC32962261


 24 25  0  0  0  0  0  0  0  0999 V2000
   -2.4099   -2.2166   -1.8272 C   0  0  0  0  0
   -0.0486    2.7593   -1.3045 C   0  0  0  0  0
    1.0074    2.8718   -2.2086 C   0  0  0  0  0
   -2.3840   -0.8448   -1.5757 C   0  0  0  0  0
   -2.8304   -3.1000   -0.8330 C   0  0  0  0  0
    0.9917    0.8075   -0.3322 C   0  0  0  0  0
    2.0478    0.9200   -1.2365 C   0  0  0  0  0
   -3.1985   -1.2401    0.6643 C   0  0  0  0  0
   -0.0565    1.7272   -0.3662 C   0  0  0  0  0
    2.0557    1.9521   -2.1747 C   0  0  0  0  0
   -2.7782   -0.3566   -0.3299 C   0  0  0  0  0
   -3.2246   -2.6119    0.4126 C   0  0  0  0  0
    3.1442   -0.0650   -1.1789 C   0  0  0  0  0
   -3.6196   -0.7089    1.9994 C   0  0  0  0  0
    4.2786    2.8806   -2.7719 C   0  0  0  0  0
    3.0558    1.4088   -4.3803 C   0  0  0  0  0
   -1.1381    1.6119    0.5587 N   0  0  0  0  0
    3.1153    2.0828   -3.0998 N   0  0  0  0  0
    3.0483   -1.1363   -1.8845 O   0  0  0  0  0
    4.1566    0.1825   -0.4247 O   0  0  0  0  0
   -3.6875    1.6737    1.0030 O   0  0  0  0  0
   -2.8673    2.0467   -1.3397 O   0  0  0  0  0
   -2.7333    1.3910   -0.0530 S   0  0  0  0  0
   -3.7329   -3.7405    1.6167 Cl  0  0  0  0  0
  1  4  1  0  0  0
  2  9  1  0  0  0
  3 10  1  0  0  0
  5 12  1  0  0  0
  6  7  1  0  0  0
  7 13  1  0  0  0
  8 11  1  0  0  0
  9 17  1  0  0  0
 10 18  1  0  0  0
 12 24  1  0  0  0
 13 19  1  0  0  0
 14  8  1  0  0  0
 15 18  1  0  0  0
 16 18  1  0  0  0
 23 11  1  0  0  0
 23 17  1  0  0  0
  1  5  2  0  0  0
  2  3  2  0  0  0
  4 11  2  0  0  0
  6  9  2  0  0  0
  7 10  2  0  0  0
  8 12  2  0  0  0
 13 20  2  0  0  0
 23 21  2  0  0  0
 23 22  2  0  0  0
M  CHG  1  19  -1
M  END
> <rmsd>
0.715556443

$$$$
ZINC65844563


 25 26  0  0  0  0  0  0  0  0999 V2000
    1.0369    2.6432   -2.3455 C   0  0  0  0  0
    1.9467    1.5914   -2.4529 C   0  0  0  0  0
    0.0300    2.5987   -1.3812 C   0  0  0  0  0
   -3.4926   -2.5730    0.5303 C   0  0  0  0  0
   -2.6286   -0.9428   -1.5622 C   0  0  0  0  0
    1.8494    0.4949   -1.5961 C   0  0  0  0  0
    0.8425    0.4503   -0.6319 C   0  0  0  0  0
   -0.0673    1.5023   -0.5245 C   0  0  0  0  0
   -3.1999   -3.1316   -0.7139 C   0  0  0  0  0
   -2.7679   -2.3165   -1.7601 C   0  0  0  0  0
   -3.3534   -1.1992    0.7282 C   0  0  0  0  0
   -2.9214   -0.3841   -0.3181 C   0  0  0  0  0
    2.8220   -0.6051   -1.7313 C   0  0  0  0  0
    0.7385   -0.7265    0.2874 C   0  0  0  0  0
   -4.6130   -4.9381   -1.3423 C   0  0  0  0  0
   -1.1364   -3.2790   -3.1980 C   0  0  0  0  0
   -1.1077    1.4772    0.4563 N   0  0  0  0  0
    3.9126   -0.5517   -1.0508 O   0  0  0  0  0
    2.5456   -1.5791   -2.5252 O   0  0  0  0  0
   -3.6193    1.7225    1.0239 O   0  0  0  0  0
   -2.8950    2.0059   -1.3624 O   0  0  0  0  0
   -3.3407   -4.4743   -0.8949 O   0  0  0  0  0
   -2.4791   -2.8505   -2.9795 O   0  0  0  0  0
   -3.6375   -0.6739    1.9281 F   0  0  0  0  0
   -2.7417    1.3595   -0.0731 S   0  0  0  0  0
  1  2  1  0  0  0
  3  8  1  0  0  0
  4 11  1  0  0  0
  5 12  1  0  0  0
  6  7  1  0  0  0
  6 13  1  0  0  0
  8 17  1  0  0  0
  9 10  1  0  0  0
  9 22  1  0  0  0
 10 23  1  0  0  0
 11 24  1  0  0  0
 13 18  1  0  0  0
 14  7  1  0  0  0
 15 22  1  0  0  0
 16 23  1  0  0  0
 25 12  1  0  0  0
 25 17  1  0  0  0
  1  3  2  0  0  0
  2  6  2  0  0  0
  4  9  2  0  0  0
  5 10  2  0  0  0
  7  8  2  0  0  0
 11 12  2  0  0  0
 13 19  2  0  0  0
 25 20  2  0  0  0
 25 21  2  0  0  0
M  CHG  1  18  -1
M  END
> <rmsd>
0.56153667

$$$$
ZINC65844563


 25 26  0  0  0  0  0  0  0  0999 V2000
    0.7086    2.4994   -2.6970 C   0  0  0  0  0
    1.5499    1.4074   -2.9091 C   0  0  0  0  0
   -0.1914    2.4900   -1.6314 C   0  0  0  0  0
   -3.7370   -2.5342    0.6036 C   0  0  0  0  0
   -3.0221   -0.9194   -1.5560 C   0  0  0  0  0
    1.4912    0.3056   -2.0555 C   0  0  0  0  0
    0.5913    0.2961   -0.9899 C   0  0  0  0  0
   -0.2501    1.3883   -0.7778 C   0  0  0  0  0
   -3.6052   -3.0897   -0.6690 C   0  0  0  0  0
   -3.2478   -2.2824   -1.7488 C   0  0  0  0  0
   -3.5114   -1.1712    0.7964 C   0  0  0  0  0
   -3.1540   -0.3639   -0.2834 C   0  0  0  0  0
    2.3898   -0.8371   -2.3023 C   0  0  0  0  0
    0.5287   -0.8864   -0.0742 C   0  0  0  0  0
   -5.1626   -4.8192   -1.1576 C   0  0  0  0  0
   -1.8264   -3.3020   -3.3600 C   0  0  0  0  0
   -1.1806    1.3996    0.3080 N   0  0  0  0  0
    3.5476   -0.8441   -1.7415 O   0  0  0  0  0
    1.9840   -1.7866   -3.0700 O   0  0  0  0  0
   -3.6031    1.7557    1.1420 O   0  0  0  0  0
   -3.1230    2.0356   -1.3056 O   0  0  0  0  0
   -3.8291   -4.4218   -0.8446 O   0  0  0  0  0
   -3.1161   -2.8135   -2.9962 O   0  0  0  0  0
   -3.6409   -0.6487    2.0239 F   0  0  0  0  0
   -2.8653    1.3660   -0.0452 S   0  0  0  0  0
  1  2  1  0  0  0
  3  8  1  0  0  0
  4 11  1  0  0  0
  5 12  1  0  0  0
  6  7  1  0  0  0
  6 13  1  0  0  0
  8 17  1  0  0  0
  9 10  1  0  0  0
  9 22  1  0  0  0
 10 23  1  0  0  0
 11 24  1  0  0  0
 13 18  1  0  0  0
 14  7  1  0  0  0
 15 22  1  0  0  0
 16 23  1  0  0  0
 25 12  1  0  0  0
 25 17  1  0  0  0
  1  3  2  0  0  0
  2  6  2  0  0  0
  4  9  2  0  0  0
  5 10  2  0  0  0
  7  8  2  0  0  0
 11 12  2  0  0  0
 13 19  2  0  0  0
 25 20  2  0  0  0
 25 21  2  0  0  0
M  CHG  1  18  -1
M  END
> <rmsd>
0.388426036

$$$$
ZINC65844563


 25 26  0  0  0  0  0  0  0  0999 V2000
    1.0408    2.6467   -2.3401 C   0  0  0  0  0
    1.9501    1.5947   -2.4488 C   0  0  0  0  0
    0.0330    2.6007   -1.3769 C   0  0  0  0  0
   -2.7751   -2.3227   -1.7554 C   0  0  0  0  0
   -3.3558   -1.1912    0.7276 C   0  0  0  0  0
    1.8515    0.4964   -1.5945 C   0  0  0  0  0
    0.8436    0.4504   -0.6313 C   0  0  0  0  0
   -0.0657    1.5025   -0.5225 C   0  0  0  0  0
   -3.2099   -3.1311   -0.7052 C   0  0  0  0  0
   -3.5002   -2.5654    0.5363 C   0  0  0  0  0
   -2.6306   -0.9486   -1.5643 C   0  0  0  0  0
   -2.9210   -0.3828   -0.3228 C   0  0  0  0  0
    2.8237   -0.6037   -1.7311 C   0  0  0  0  0
    0.7382   -0.7284    0.2853 C   0  0  0  0  0
   -3.0289   -4.9700   -2.2024 C   0  0  0  0  0
   -4.2009   -2.6887    2.8056 C   0  0  0  0  0
   -1.1070    1.4759    0.4572 N   0  0  0  0  0
    3.9136   -0.5524   -1.0494 O   0  0  0  0  0
    2.5476   -1.5759   -2.5273 O   0  0  0  0  0
   -3.6191    1.7213    1.0230 O   0  0  0  0  0
   -2.8923    2.0093   -1.3620 O   0  0  0  0  0
   -3.3461   -4.4718   -0.9042 O   0  0  0  0  0
   -3.9255   -3.3447    1.5694 O   0  0  0  0  0
   -2.2121   -0.1818   -2.5808 F   0  0  0  0  0
   -2.7406    1.3602   -0.0740 S   0  0  0  0  0
  1  2  1  0  0  0
  3  8  1  0  0  0
  4 11  1  0  0  0
  5 12  1  0  0  0
  6  7  1  0  0  0
  6 13  1  0  0  0
  8 17  1  0  0  0
  9 10  1  0  0  0
  9 22  1  0  0  0
 10 23  1  0  0  0
 11 24  1  0  0  0
 13 18  1  0  0  0
 14  7  1  0  0  0
 15 22  1  0  0  0
 16 23  1  0  0  0
 25 12  1  0  0  0
 25 17  1  0  0  0
  1  3  2  0  0  0
  2  6  2  0  0  0
  4  9  2  0  0  0
  5 10  2  0  0  0
  7  8  2  0  0  0
 11 12  2  0  0  0
 13 19  2  0  0  0
 25 20  2  0  0  0
 25 21  2  0  0  0
M  CHG  1  18  -1
M  END
> <rmsd>
0.558665216

$$$$
ZINC65844563


 25 26  0  0  0  0  0  0  0  0999 V2000
    0.7127    2.5042   -2.6920 C   0  0  0  0  0
    1.5536    1.4121   -2.9058 C   0  0  0  0  0
   -0.1882    2.4928   -1.6272 C   0  0  0  0  0
   -3.2544   -2.2877   -1.7443 C   0  0  0  0  0
   -3.5131   -1.1633    0.7956 C   0  0  0  0  0
    1.4935    0.3084   -2.0548 C   0  0  0  0  0
    0.5925    0.2970   -0.9900 C   0  0  0  0  0
   -0.2485    1.3892   -0.7762 C   0  0  0  0  0
   -3.6137   -3.0887   -0.6604 C   0  0  0  0  0
   -3.7430   -2.5265    0.6096 C   0  0  0  0  0
   -3.0245   -0.9246   -1.5584 C   0  0  0  0  0
   -3.1538   -0.3623   -0.2885 C   0  0  0  0  0
    2.3915   -0.8343   -2.3034 C   0  0  0  0  0
    0.5284   -0.8876   -0.0770 C   0  0  0  0  0
   -3.6814   -4.9140   -2.1834 C   0  0  0  0  0
   -4.2039   -2.6468    2.9396 C   0  0  0  0  0
   -1.1799    1.3986    0.3088 N   0  0  0  0  0
    3.5489   -0.8433   -1.7414 O   0  0  0  0  0
    1.9859   -1.7818   -3.0735 O   0  0  0  0  0
   -3.6030    1.7542    1.1413 O   0  0  0  0  0
   -3.1205    2.0394   -1.3052 O   0  0  0  0  0
   -3.8347   -4.4187   -0.8547 O   0  0  0  0  0
   -4.0932   -3.2986    1.6757 O   0  0  0  0  0
   -2.6798   -0.1649   -2.6075 F   0  0  0  0  0
   -2.8643    1.3668   -0.0460 S   0  0  0  0  0
  1  2  1  0  0  0
  3  8  1  0  0  0
  4 11  1  0  0  0
  5 12  1  0  0  0
  6  7  1  0  0  0
  6 13  1  0  0  0
  8 17  1  0  0  0
  9 10  1  0  0  0
  9 22  1  0  0  0
 10 23  1  0  0  0
 11 24  1  0  0  0
 13 18  1  0  0  0
 14  7  1  0  0  0
 15 22  1  0  0  0
 16 23  1  0  0  0
 25 12  1  0  0  0
 25 17  1  0  0  0
  1  3  2  0  0  0
  2  6  2  0  0  0
  4  9  2  0  0  0
  5 10  2  0  0  0
  7  8  2  0  0  0
 11 12  2  0  0  0
 13 19  2  0  0  0
 25 20  2  0  0  0
 25 21  2  0  0  0
M  CHG  1  18  -1
M  END
> <rmsd>
0.386429071

$$$$
ZINC26538982


 25 26  0  0  0  0  0  0  0  0999 V2000
    1.9360    1.5934   -2.4772 C   0  0  0  0  0
    1.0292    2.6485   -2.3780 C   0  0  0  0  0
    0.8301    0.4706   -0.6461 C   0  0  0  0  0
   -2.9480   -2.6491    0.5339 C   0  0  0  0  0
   -3.1483   -0.8655   -1.6019 C   0  0  0  0  0
    1.8365    0.5043   -1.6113 C   0  0  0  0  0
   -2.8117   -1.2787    0.7546 C   0  0  0  0  0
   -0.0768    1.5257   -0.5468 C   0  0  0  0  0
   -3.1843   -3.1279   -0.7549 C   0  0  0  0  0
   -3.2845   -2.2361   -1.8227 C   0  0  0  0  0
    0.0228    2.6147   -1.4128 C   0  0  0  0  0
   -2.9119   -0.3868   -0.3132 C   0  0  0  0  0
    2.7934   -0.6088   -1.7164 C   0  0  0  0  0
   -2.5600   -0.7985    2.1466 C   0  0  0  0  0
   -3.1994   -5.3116    0.1869 C   0  0  0  0  0
   -2.3722   -3.0007   -3.8816 C   0  0  0  0  0
   -1.1055    1.4894    0.4425 N   0  0  0  0  0
    2.6800   -1.6025   -0.9047 O   0  0  0  0  0
    3.7132   -0.5529   -2.6162 O   0  0  0  0  0
   -3.6152    1.7131    1.0364 O   0  0  0  0  0
   -2.9168    2.0036   -1.3568 O   0  0  0  0  0
   -3.3151   -4.4685   -0.9576 O   0  0  0  0  0
   -3.5147   -2.6913   -3.0856 O   0  0  0  0  0
   -0.8441    3.6337   -1.3261 F   0  0  0  0  0
   -2.7452    1.3582   -0.0694 S   0  0  0  0  0
  1  6  1  0  0  0
  2 11  1  0  0  0
  3  8  1  0  0  0
  4  7  1  0  0  0
  5 12  1  0  0  0
  6 13  1  0  0  0
  8 17  1  0  0  0
  9 10  1  0  0  0
  9 22  1  0  0  0
 10 23  1  0  0  0
 11 24  1  0  0  0
 13 18  1  0  0  0
 14  7  1  0  0  0
 15 22  1  0  0  0
 16 23  1  0  0  0
 25 12  1  0  0  0
 25 17  1  0  0  0
  1  2  2  0  0  0
  3  6  2  0  0  0
  4  9  2  0  0  0
  5 10  2  0  0  0
  7 12  2  0  0  0
  8 11  2  0  0  0
 13 19  2  0  0  0
 25 20  2  0  0  0
 25 21  2  0  0  0
M  CHG  1  18  -1
M  END
> <rmsd>
0.578640699

$$$$
ZINC65844563


 25 26  0  0  0  0  0  0  0  0999 V2000
    1.0368    2.6429   -2.3458 C   0  0  0  0  0
    1.9465    1.5911   -2.4532 C   0  0  0  0  0
    0.0298    2.5984   -1.3816 C   0  0  0  0  0
   -3.4928   -2.5733    0.5298 C   0  0  0  0  0
   -2.6288   -0.9430   -1.5626 C   0  0  0  0  0
    1.8493    0.4946   -1.5964 C   0  0  0  0  0
    0.8423    0.4501   -0.6323 C   0  0  0  0  0
   -0.0675    1.5020   -0.5248 C   0  0  0  0  0
   -3.2000   -3.1319   -0.7143 C   0  0  0  0  0
   -2.7680   -2.3167   -1.7605 C   0  0  0  0  0
   -3.3536   -1.1996    0.7277 C   0  0  0  0  0
   -2.9216   -0.3844   -0.3185 C   0  0  0  0  0
    2.8219   -0.6053   -1.7316 C   0  0  0  0  0
    0.7384   -0.7268    0.2870 C   0  0  0  0  0
   -2.2025   -5.2887   -0.6203 C   0  0  0  0  0
   -3.5472   -2.9304   -3.9220 C   0  0  0  0  0
   -1.1078    1.4769    0.4559 N   0  0  0  0  0
    3.9124   -0.5520   -1.0511 O   0  0  0  0  0
    2.5455   -1.5793   -2.5256 O   0  0  0  0  0
   -3.6195    1.7222    1.0235 O   0  0  0  0  0
   -2.8951    2.0056   -1.3628 O   0  0  0  0  0
   -3.3408   -4.4746   -0.8954 O   0  0  0  0  0
   -2.4792   -2.8507   -2.9799 O   0  0  0  0  0
   -3.6377   -0.6742    1.9277 F   0  0  0  0  0
   -2.7419    1.3592   -0.0735 S   0  0  0  0  0
  1  2  1  0  0  0
  3  8  1  0  0  0
  4 11  1  0  0  0
  5 12  1  0  0  0
  6  7  1  0  0  0
  6 13  1  0  0  0
  8 17  1  0  0  0
  9 10  1  0  0  0
  9 22  1  0  0  0
 10 23  1  0  0  0
 11 24  1  0  0  0
 13 18  1  0  0  0
 14  7  1  0  0  0
 15 22  1  0  0  0
 16 23  1  0  0  0
 25 12  1  0  0  0
 25 17  1  0  0  0
  1  3  2  0  0  0
  2  6  2  0  0  0
  4  9  2  0  0  0
  5 10  2  0  0  0
  7  8  2  0  0  0
 11 12  2  0  0  0
 13 19  2  0  0  0
 25 20  2  0  0  0
 25 21  2  0  0  0
M  CHG  1  18  -1
M  END
> <rmsd>
0.561588764

$$$$
ZINC65844563


 25 26  0  0  0  0  0  0  0  0999 V2000
    0.7084    2.4992   -2.6973 C   0  0  0  0  0
    1.5497    1.4071   -2.9094 C   0  0  0  0  0
   -0.1916    2.4897   -1.6317 C   0  0  0  0  0
   -3.7372   -2.5345    0.6032 C   0  0  0  0  0
   -3.0223   -0.9197   -1.5564 C   0  0  0  0  0
    1.4910    0.3054   -2.0559 C   0  0  0  0  0
    0.5911    0.2958   -0.9903 C   0  0  0  0  0
   -0.2504    1.3880   -0.7781 C   0  0  0  0  0
   -3.6054   -3.0900   -0.6695 C   0  0  0  0  0
   -3.2480   -2.2826   -1.7492 C   0  0  0  0  0
   -3.5116   -1.1715    0.7960 C   0  0  0  0  0
   -3.1542   -0.3641   -0.2838 C   0  0  0  0  0
    2.3896   -0.8373   -2.3026 C   0  0  0  0  0
    0.5285   -0.8867   -0.0745 C   0  0  0  0  0
   -2.7088   -5.2925   -0.6993 C   0  0  0  0  0
   -4.2807   -2.8307   -3.8202 C   0  0  0  0  0
   -1.1808    1.3993    0.3077 N   0  0  0  0  0
    3.5474   -0.8444   -1.7418 O   0  0  0  0  0
    1.9838   -1.7868   -3.0703 O   0  0  0  0  0
   -3.6033    1.7554    1.1416 O   0  0  0  0  0
   -3.1233    2.0353   -1.3060 O   0  0  0  0  0
   -3.8293   -4.4221   -0.8451 O   0  0  0  0  0
   -3.1163   -2.8137   -2.9967 O   0  0  0  0  0
   -3.6412   -0.6490    2.0235 F   0  0  0  0  0
   -2.8655    1.3657   -0.0455 S   0  0  0  0  0
  1  2  1  0  0  0
  3  8  1  0  0  0
  4 11  1  0  0  0
  5 12  1  0  0  0
  6  7  1  0  0  0
  6 13  1  0  0  0
  8 17  1  0  0  0
  9 10  1  0  0  0
  9 22  1  0  0  0
 10 23  1  0  0  0
 11 24  1  0  0  0
 13 18  1  0  0  0
 14  7  1  0  0  0
 15 22  1  0  0  0
 16 23  1  0  0  0
 25 12  1  0  0  0
 25 17  1  0  0  0
  1  3  2  0  0  0
  2  6  2  0  0  0
  4  9  2  0  0  0
  5 10  2  0  0  0
  7  8  2  0  0  0
 11 12  2  0  0  0
 13 19  2  0  0  0
 25 20  2  0  0  0
 25 21  2  0  0  0
M  CHG  1  18  -1
M  END
> <rmsd>
0.388632864

$$$$
ZINC72283981


 26 28  0  0  0  0  0  0  0  0999 V2000
    0.8395    2.4637   -2.6184 C   0  0  0  0  0
   -3.2765   -5.4321    0.1348 C   0  0  0  0  0
   -3.8800   -5.0261   -2.1692 C   0  0  0  0  0
   -3.5529   -2.5641    0.5423 C   0  0  0  0  0
   -2.9159   -2.3105   -1.7743 C   0  0  0  0  0
    1.8182    1.4704   -2.6480 C   0  0  0  0  0
   -0.1297    2.4582   -1.6151 C   0  0  0  0  0
   -3.4454   -6.8025   -0.0625 C   0  0  0  0  0
   -4.0489   -6.3965   -2.3664 C   0  0  0  0  0
   -3.3842   -1.1935    0.7388 C   0  0  0  0  0
   -2.7474   -0.9398   -1.5779 C   0  0  0  0  0
    0.8585    0.4658   -0.6714 C   0  0  0  0  0
   -3.4939   -4.5438   -0.9186 C   0  0  0  0  0
   -3.3187   -3.1226   -0.7142 C   0  0  0  0  0
    1.8277    0.4714   -1.6746 C   0  0  0  0  0
   -0.1201    1.4593   -0.6417 C   0  0  0  0  0
   -3.8315   -7.2848   -1.3130 C   0  0  0  0  0
   -2.9815   -0.3814   -0.3212 C   0  0  0  0  0
    2.8604   -0.5772   -1.7073 C   0  0  0  0  0
   -1.1186    1.4543    0.3933 N   0  0  0  0  0
    2.8476   -1.4881   -0.7971 O   0  0  0  0  0
    3.7428   -0.5488   -2.6450 O   0  0  0  0  0
   -3.5950    1.7236    1.0637 O   0  0  0  0  0
   -2.9686    2.0158   -1.3491 O   0  0  0  0  0
   -3.9957   -8.6220   -1.5053 O   0  0  0  0  0
   -2.7722    1.3346   -0.0754 S   0  0  0  0  0
  1  6  1  0  0  0
  2 13  1  0  0  0
  3  9  1  0  0  0
  4 14  1  0  0  0
  5 11  1  0  0  0
  7 16  1  0  0  0
  8 17  1  0  0  0
 10 18  1  0  0  0
 12 15  1  0  0  0
 13 14  1  0  0  0
 15 19  1  0  0  0
 16 20  1  0  0  0
 17 25  1  0  0  0
 19 21  1  0  0  0
 26 18  1  0  0  0
 26 20  1  0  0  0
  1  7  2  0  0  0
  2  8  2  0  0  0
  3 13  2  0  0  0
  4 10  2  0  0  0
  5 14  2  0  0  0
  6 15  2  0  0  0
  9 17  2  0  0  0
 11 18  2  0  0  0
 12 16  2  0  0  0
 19 22  2  0  0  0
 26 23  2  0  0  0
 26 24  2  0  0  0
M  CHG  1  21  -1
M  END
> <rmsd>
0.51962769

$$$$
ZINC13942448


 27 29  0  0  0  0  0  0  0  0999 V2000
   -5.0105   -1.3229   -3.4998 C   0  0  0  0  0
   -4.6680    0.0209   -3.3830 C   0  0  0  0  0
   -2.3358   -2.3466    0.4334 C   0  0  0  0  0
   -4.5185   -2.2514   -2.5821 C   0  0  0  0  0
   -3.8322    0.4414   -2.3480 C   0  0  0  0  0
   -3.1717   -2.7670   -0.6016 C   0  0  0  0  0
   -1.9933   -1.0028    0.5502 C   0  0  0  0  0
   -3.6761   -1.8460   -1.5342 C   0  0  0  0  0
   -3.3278   -0.4795   -1.4154 C   0  0  0  0  0
   -2.4853   -0.0742   -0.3675 C   0  0  0  0  0
    0.3943    1.4785   -0.4592 C   0  0  0  0  0
    2.4783   -0.5383   -0.7569 C   0  0  0  0  0
   -3.0801    2.1406    0.6605 C   0  0  0  0  0
    2.4885    3.7955   -0.6935 C   0  0  0  0  0
    3.6613    3.0747   -1.3512 C   0  0  0  0  0
    1.9960    3.0660    0.5579 C   0  0  0  0  0
    3.3320    1.6150   -1.6521 C   0  0  0  0  0
    1.6878    1.5861    0.3018 C   0  0  0  0  0
    2.8568    0.8884   -0.3975 C   0  0  0  0  0
   -3.6473    4.2660    1.5353 C   0  0  0  0  0
   -2.0742    1.3676   -0.1818 C   0  0  0  0  0
   -0.7308    1.4633    0.3429 N   0  0  0  0  0
    3.0833   -1.0218   -1.7536 O   0  0  0  0  0
    0.4166    1.4155   -1.6828 O   0  0  0  0  0
    1.6035   -1.0586   -0.0090 O   0  0  0  0  0
   -4.0976    1.6309    1.1190 O   0  0  0  0  0
   -2.7316    3.4516    0.7955 O   0  0  0  0  0
  1  2  1  0  0  0
  3  6  1  0  0  0
  4  8  1  0  0  0
  5  9  1  0  0  0
  7 10  1  0  0  0
  8  9  1  0  0  0
 11 22  1  0  0  0
 12 23  1  0  0  0
 13 27  1  0  0  0
 14 15  1  0  0  0
 14 16  1  0  0  0
 15 17  1  0  0  0
 16 18  1  0  0  0
 17 19  1  0  0  0
 18 11  1  0  0  0
 18 19  1  0  0  0
 19 12  1  0  0  0
 20 27  1  0  0  0
 21 10  1  0  0  0
 21 13  1  0  0  0
 21 22  1  0  0  0
  1  4  2  0  0  0
  2  5  2  0  0  0
  3  7  2  0  0  0
  6  8  2  0  0  0
  9 10  2  0  0  0
 11 24  2  0  0  0
 12 25  2  0  0  0
 13 26  2  0  0  0
M  CHG  1  23  -1
M  END
> <rmsd>
0.653021991

$$$$
ZINC03833246


 24 25  0  0  0  0  0  0  0  0999 V2000
   -3.3833   -1.1922    0.7413 C   0  0  0  0  0
   -3.5505   -2.5633    0.5462 C   0  0  0  0  0
    1.8476    1.5091   -2.6081 C   0  0  0  0  0
   -0.1006    2.4917   -1.5708 C   0  0  0  0  0
    0.8586    0.4675   -0.6655 C   0  0  0  0  0
   -2.7441   -0.9406   -1.5749 C   0  0  0  0  0
    0.8785    2.5113   -2.5642 C   0  0  0  0  0
    1.8377    0.4872   -1.6587 C   0  0  0  0  0
   -0.1106    1.4697   -0.6215 C   0  0  0  0  0
   -2.9112   -2.3116   -1.7700 C   0  0  0  0  0
   -2.9801   -0.3809   -0.3193 C   0  0  0  0  0
   -3.3144   -3.1229   -0.7094 C   0  0  0  0  0
    0.8891    3.5898   -3.5660 C   0  0  0  0  0
    2.8605   -0.5706   -1.7053 C   0  0  0  0  0
   -2.6643   -2.8491   -3.0535 N   0  0  0  0  0
   -1.1121    1.4503    0.3960 N   0  0  0  0  0
   -0.0171    4.5027   -3.5033 O   0  0  0  0  0
    2.8290   -1.5023   -0.8170 O   0  0  0  0  0
    1.8040    3.5845   -4.4724 O   0  0  0  0  0
    3.7530   -0.5290   -2.6327 O   0  0  0  0  0
   -3.5987    1.7261    1.0606 O   0  0  0  0  0
   -2.9607    2.0152   -1.3496 O   0  0  0  0  0
   -2.7678    1.3585   -0.0709 S   0  0  0  0  0
   -3.5355   -4.8248   -0.9076 Cl  0  0  0  0  0
  1  2  1  0  0  0
  3  7  1  0  0  0
  4  9  1  0  0  0
  5  8  1  0  0  0
  6 11  1  0  0  0
  7 13  1  0  0  0
  8 14  1  0  0  0
  9 16  1  0  0  0
 10 12  1  0  0  0
 10 15  1  0  0  0
 12 24  1  0  0  0
 13 17  1  0  0  0
 14 18  1  0  0  0
 23 11  1  0  0  0
 23 16  1  0  0  0
  1 11  2  0  0  0
  2 12  2  0  0  0
  3  8  2  0  0  0
  4  7  2  0  0  0
  5  9  2  0  0  0
  6 10  2  0  0  0
 13 19  2  0  0  0
 14 20  2  0  0  0
 23 21  2  0  0  0
 23 22  2  0  0  0
M  CHG  2  17  -1  18  -1
M  END
> <rmsd>
0.518862069

$$$$
ZINC03833246


 24 25  0  0  0  0  0  0  0  0999 V2000
   -2.7446   -0.9395   -1.5745 C   0  0  0  0  0
   -2.9119   -2.3103   -1.7707 C   0  0  0  0  0
    1.8467    1.5093   -2.6082 C   0  0  0  0  0
   -0.1016    2.4919   -1.5711 C   0  0  0  0  0
    0.8581    0.4681   -0.6652 C   0  0  0  0  0
   -3.3839   -1.1928    0.7415 C   0  0  0  0  0
    0.8775    2.5114   -2.5645 C   0  0  0  0  0
    1.8370    0.4877   -1.6585 C   0  0  0  0  0
   -0.1113    1.4703   -0.6214 C   0  0  0  0  0
   -3.5512   -2.5636    0.5454 C   0  0  0  0  0
   -2.9805   -0.3807   -0.3184 C   0  0  0  0  0
   -3.3152   -3.1224   -0.7107 C   0  0  0  0  0
    0.8878    3.5896   -3.5666 C   0  0  0  0  0
    2.8600   -0.5699   -1.7049 C   0  0  0  0  0
   -3.9608   -3.3601    1.6385 N   0  0  0  0  0
   -1.1127    1.4509    0.3961 N   0  0  0  0  0
   -0.0185    4.5023   -3.5041 O   0  0  0  0  0
    2.8287   -1.5014   -0.8163 O   0  0  0  0  0
    1.8026    3.5842   -4.4731 O   0  0  0  0  0
    3.7524   -0.5285   -2.6324 O   0  0  0  0  0
   -3.5993    1.7266    1.0609 O   0  0  0  0  0
   -2.9615    2.0151   -1.3494 O   0  0  0  0  0
   -2.7685    1.3588   -0.0705 S   0  0  0  0  0
   -3.5082   -4.8151   -0.9969 Cl  0  0  0  0  0
  1  2  1  0  0  0
  3  7  1  0  0  0
  4  9  1  0  0  0
  5  8  1  0  0  0
  6 11  1  0  0  0
  7 13  1  0  0  0
  8 14  1  0  0  0
  9 16  1  0  0  0
 10 12  1  0  0  0
 10 15  1  0  0  0
 12 24  1  0  0  0
 13 17  1  0  0  0
 14 18  1  0  0  0
 23 11  1  0  0  0
 23 16  1  0  0  0
  1 11  2  0  0  0
  2 12  2  0  0  0
  3  8  2  0  0  0
  4  7  2  0  0  0
  5  9  2  0  0  0
  6 10  2  0  0  0
 13 19  2  0  0  0
 14 20  2  0  0  0
 23 21  2  0  0  0
 23 22  2  0  0  0
M  CHG  2  17  -1  18  -1
M  END
> <rmsd>
0.518835902

$$$$
ZINC47318163


 24 25  0  0  0  0  0  0  0  0999 V2000
   -0.1092    2.5050   -1.5766 C   0  0  0  0  0
    0.8654    2.5300   -2.5740 C   0  0  0  0  0
    0.8589    0.4806   -0.6813 C   0  0  0  0  0
   -3.5269   -2.2323   -1.7726 C   0  0  0  0  0
   -2.9154   -2.6398    0.5290 C   0  0  0  0  0
    1.8335    0.5056   -1.6788 C   0  0  0  0  0
   -3.3632   -0.8616   -1.5734 C   0  0  0  0  0
   -2.7514   -1.2690    0.7281 C   0  0  0  0  0
   -0.1125    1.4803   -0.6301 C   0  0  0  0  0
   -3.3031   -3.1216   -0.7214 C   0  0  0  0  0
   -2.9754   -0.3799   -0.3231 C   0  0  0  0  0
    1.8368    1.5303   -2.6251 C   0  0  0  0  0
    2.8440   -0.5695   -1.7005 C   0  0  0  0  0
   -3.6130    0.0601   -2.7225 C   0  0  0  0  0
   -2.3351   -0.7897    2.0806 C   0  0  0  0  0
   -3.8635   -4.8830   -2.2177 C   0  0  0  0  0
   -1.1104    1.4551    0.3907 N   0  0  0  0  0
    2.5963   -1.6342   -2.3782 O   0  0  0  0  0
    3.9353   -0.4027   -1.0406 O   0  0  0  0  0
   -3.5956    1.7214    1.0646 O   0  0  0  0  0
   -2.9667    2.0191   -1.3469 O   0  0  0  0  0
   -3.4643   -4.4590   -0.9152 O   0  0  0  0  0
   -2.7675    1.3595   -0.0706 S   0  0  0  0  0
    3.0256    1.5982   -3.8757 Cl  0  0  0  0  0
  1  9  1  0  0  0
  2 12  1  0  0  0
  3  6  1  0  0  0
  4  7  1  0  0  0
  5 10  1  0  0  0
  6 13  1  0  0  0
  8 11  1  0  0  0
  9 17  1  0  0  0
 10 22  1  0  0  0
 12 24  1  0  0  0
 13 18  1  0  0  0
 14  7  1  0  0  0
 15  8  1  0  0  0
 16 22  1  0  0  0
 23 11  1  0  0  0
 23 17  1  0  0  0
  1  2  2  0  0  0
  3  9  2  0  0  0
  4 10  2  0  0  0
  5  8  2  0  0  0
  6 12  2  0  0  0
  7 11  2  0  0  0
 13 19  2  0  0  0
 23 20  2  0  0  0
 23 21  2  0  0  0
M  CHG  1  18  -1
M  END
> <rmsd>
0.529298007

$$$$
ZINC47318163


 24 25  0  0  0  0  0  0  0  0999 V2000
   -0.0406    2.7711   -1.2925 C   0  0  0  0  0
    1.0176    2.8901   -2.1934 C   0  0  0  0  0
    0.9963    0.8111   -0.3332 C   0  0  0  0  0
   -3.0419   -2.2115   -1.8638 C   0  0  0  0  0
   -2.6169   -2.6137    0.4804 C   0  0  0  0  0
    2.0545    0.9300   -1.2341 C   0  0  0  0  0
   -3.0057   -0.8363   -1.6344 C   0  0  0  0  0
   -2.5806   -1.2383    0.7097 C   0  0  0  0  0
   -0.0512    1.7316   -0.3623 C   0  0  0  0  0
   -2.8476   -3.1004   -0.8064 C   0  0  0  0  0
   -2.7751   -0.3496   -0.3477 C   0  0  0  0  0
    2.0652    1.9695   -2.1642 C   0  0  0  0  0
    3.1440   -0.0632   -1.1729 C   0  0  0  0  0
   -3.2193    0.0848   -2.7914 C   0  0  0  0  0
   -2.3309   -0.7537    2.1008 C   0  0  0  0  0
   -3.1260   -4.8716   -2.3689 C   0  0  0  0  0
   -1.1347    1.6103    0.5595 N   0  0  0  0  0
    3.0450   -1.1309   -1.8830 O   0  0  0  0  0
    4.1527    0.1750   -0.4112 O   0  0  0  0  0
   -3.6850    1.6711    0.9993 O   0  0  0  0  0
   -2.8599    2.0617   -1.3386 O   0  0  0  0  0
   -2.8843   -4.4425   -1.0298 O   0  0  0  0  0
   -2.7290    1.3956   -0.0569 S   0  0  0  0  0
    3.3561    2.1525   -3.2963 Cl  0  0  0  0  0
  1  9  1  0  0  0
  2 12  1  0  0  0
  3  6  1  0  0  0
  4  7  1  0  0  0
  5 10  1  0  0  0
  6 13  1  0  0  0
  8 11  1  0  0  0
  9 17  1  0  0  0
 10 22  1  0  0  0
 12 24  1  0  0  0
 13 18  1  0  0  0
 14  7  1  0  0  0
 15  8  1  0  0  0
 16 22  1  0  0  0
 23 11  1  0  0  0
 23 17  1  0  0  0
  1  2  2  0  0  0
  3  9  2  0  0  0
  4 10  2  0  0  0
  5  8  2  0  0  0
  6 12  2  0  0  0
  7 11  2  0  0  0
 13 19  2  0  0  0
 23 20  2  0  0  0
 23 21  2  0  0  0
M  CHG  1  18  -1
M  END
> <rmsd>
0.710662127

$$$$
ZINC35397742


 24 25  0  0  0  0  0  0  0  0999 V2000
   -2.4178   -2.2278   -1.8143 C   0  0  0  0  0
   -2.3850   -0.8554   -1.5674 C   0  0  0  0  0
   -2.8504   -3.1052   -0.8199 C   0  0  0  0  0
    1.0012    0.7934   -0.3303 C   0  0  0  0  0
   -0.0245    2.6886   -1.3366 C   0  0  0  0  0
    2.0405    0.9072   -1.2470 C   0  0  0  0  0
   -3.2172   -1.2378    0.6683 C   0  0  0  0  0
   -0.0547    1.6972   -0.3692 C   0  0  0  0  0
   -2.7847   -0.3604   -0.3261 C   0  0  0  0  0
   -3.2500   -2.6102    0.4214 C   0  0  0  0  0
    1.9769    1.9339   -2.1752 C   0  0  0  0  0
    3.1579   -0.0515   -1.2037 C   0  0  0  0  0
   -3.6441   -0.6993    1.9986 C   0  0  0  0  0
    2.9608    1.3679   -4.3824 C   0  0  0  0  0
    4.1812    2.8809   -2.8110 C   0  0  0  0  0
    0.9677    2.8308   -2.2439 N   0  0  0  0  0
   -1.1440    1.6055    0.5652 N   0  0  0  0  0
    3.0327    2.0561   -3.1130 N   0  0  0  0  0
    3.0727   -1.1326   -1.8976 O   0  0  0  0  0
    4.1816    0.2240   -0.4734 O   0  0  0  0  0
   -3.6860    1.6794    0.9977 O   0  0  0  0  0
   -2.8586    2.0398   -1.3443 O   0  0  0  0  0
   -2.7316    1.3689   -0.0580 S   0  0  0  0  0
   -3.7734   -3.7314    1.6258 Cl  0  0  0  0  0
  1  2  1  0  0  0
  3 10  1  0  0  0
  4  8  1  0  0  0
  5 16  1  0  0  0
  6 11  1  0  0  0
  6 12  1  0  0  0
  7  9  1  0  0  0
  8 17  1  0  0  0
 10 24  1  0  0  0
 11 18  1  0  0  0
 12 19  1  0  0  0
 13  7  1  0  0  0
 14 18  1  0  0  0
 15 18  1  0  0  0
 23  9  1  0  0  0
 23 17  1  0  0  0
  1  3  2  0  0  0
  2  9  2  0  0  0
  4  6  2  0  0  0
  5  8  2  0  0  0
  7 10  2  0  0  0
 11 16  2  0  0  0
 12 20  2  0  0  0
 23 21  2  0  0  0
 23 22  2  0  0  0
M  CHG  1  19  -1
M  END
> <rmsd>
0.703829885

$$$$
ZINC35397742


 24 25  0  0  0  0  0  0  0  0999 V2000
   -2.9021   -2.3020   -1.7760 C   0  0  0  0  0
   -2.7387   -0.9335   -1.5611 C   0  0  0  0  0
   -3.3103   -3.1285   -0.7290 C   0  0  0  0  0
    0.8657    0.4536   -0.6669 C   0  0  0  0  0
   -0.0945    2.4118   -1.6156 C   0  0  0  0  0
    1.8229    0.4712   -1.6754 C   0  0  0  0  0
   -3.3913   -1.2181    0.7477 C   0  0  0  0  0
   -0.1146    1.4388   -0.6293 C   0  0  0  0  0
   -2.9833   -0.3916   -0.2993 C   0  0  0  0  0
   -3.5547   -2.5866    0.5327 C   0  0  0  0  0
    1.7562    1.4874   -2.6149 C   0  0  0  0  0
    2.8603   -0.5737   -1.7131 C   0  0  0  0  0
   -3.6514   -0.6295    2.0996 C   0  0  0  0  0
    2.4871    0.8150   -4.8895 C   0  0  0  0  0
    3.9613    2.2455   -3.4652 C   0  0  0  0  0
    0.8190    2.4617   -2.6110 N   0  0  0  0  0
   -1.1181    1.4474    0.4008 N   0  0  0  0  0
    2.7285    1.5118   -3.6460 N   0  0  0  0  0
    2.6272   -1.6534   -2.3743 O   0  0  0  0  0
    3.9649   -0.3718   -1.0834 O   0  0  0  0  0
   -3.5963    1.7314    1.0581 O   0  0  0  0  0
   -2.9599    1.9932   -1.3555 O   0  0  0  0  0
   -2.7696    1.3313   -0.0724 S   0  0  0  0  0
   -4.0531   -3.6460    1.8019 Cl  0  0  0  0  0
  1  2  1  0  0  0
  3 10  1  0  0  0
  4  8  1  0  0  0
  5 16  1  0  0  0
  6 11  1  0  0  0
  6 12  1  0  0  0
  7  9  1  0  0  0
  8 17  1  0  0  0
 10 24  1  0  0  0
 11 18  1  0  0  0
 12 19  1  0  0  0
 13  7  1  0  0  0
 14 18  1  0  0  0
 15 18  1  0  0  0
 23  9  1  0  0  0
 23 17  1  0  0  0
  1  3  2  0  0  0
  2  9  2  0  0  0
  4  6  2  0  0  0
  5  8  2  0  0  0
  7 10  2  0  0  0
 11 16  2  0  0  0
 12 20  2  0  0  0
 23 21  2  0  0  0
 23 22  2  0  0  0
M  CHG  1  19  -1
M  END
> <rmsd>
0.520223737

$$$$
ZINC00947873


 26 28  0  0  0  0  0  0  0  0999 V2000
   -3.2449   -5.0782   -2.1832 C   0  0  0  0  0
   -2.8433   -4.2687   -3.2417 C   0  0  0  0  0
   -3.4808   -4.5194   -0.9268 C   0  0  0  0  0
   -2.6763   -2.8972   -3.0478 C   0  0  0  0  0
   -3.5506   -2.5615    0.5443 C   0  0  0  0  0
   -3.3834   -1.1900    0.7382 C   0  0  0  0  0
   -2.7460   -0.9392   -1.5766 C   0  0  0  0  0
    1.8166    1.4698   -2.6498 C   0  0  0  0  0
   -0.1304    2.4582   -1.6160 C   0  0  0  0  0
    0.8581    0.4660   -0.6721 C   0  0  0  0  0
   -3.3176   -3.1409   -0.7136 C   0  0  0  0  0
   -2.9092   -2.3177   -1.7899 C   0  0  0  0  0
    0.8380    2.4633   -2.6198 C   0  0  0  0  0
    1.8267    0.4710   -1.6759 C   0  0  0  0  0
   -0.1205    1.4595   -0.6422 C   0  0  0  0  0
   -2.9818   -0.3805   -0.3202 C   0  0  0  0  0
    0.8276    3.5171   -3.6475 C   0  0  0  0  0
    2.8594   -0.5775   -1.7077 C   0  0  0  0  0
   -1.1184    1.4550    0.3934 N   0  0  0  0  0
   -0.0870    4.4224   -3.5972 O   0  0  0  0  0
    2.8464   -1.4877   -0.7969 O   0  0  0  0  0
    1.7330    3.4988   -4.5630 O   0  0  0  0  0
    3.7418   -0.5497   -2.6452 O   0  0  0  0  0
   -3.5945    1.7249    1.0647 O   0  0  0  0  0
   -2.9691    2.0165   -1.3484 O   0  0  0  0  0
   -2.7722    1.3351   -0.0747 S   0  0  0  0  0
  1  2  1  0  0  0
  3 11  1  0  0  0
  4 12  1  0  0  0
  5 11  1  0  0  0
  6 16  1  0  0  0
  7 12  1  0  0  0
  8 13  1  0  0  0
  9 15  1  0  0  0
 10 14  1  0  0  0
 13 17  1  0  0  0
 14 18  1  0  0  0
 15 19  1  0  0  0
 17 20  1  0  0  0
 18 21  1  0  0  0
 26 16  1  0  0  0
 26 19  1  0  0  0
  1  3  2  0  0  0
  2  4  2  0  0  0
  5  6  2  0  0  0
  7 16  2  0  0  0
  8 14  2  0  0  0
  9 13  2  0  0  0
 10 15  2  0  0  0
 11 12  2  0  0  0
 17 22  2  0  0  0
 18 23  2  0  0  0
 26 24  2  0  0  0
 26 25  2  0  0  0
M  CHG  2  20  -1  21  -1
M  END
> <rmsd>
0.521560729

$$$$
ZINC00947873


 26 28  0  0  0  0  0  0  0  0999 V2000
   -3.8988   -5.3334    0.1535 C   0  0  0  0  0
   -4.1340   -4.7783    1.4078 C   0  0  0  0  0
   -3.4947   -4.5202   -0.9057 C   0  0  0  0  0
   -3.9659   -3.4079    1.6079 C   0  0  0  0  0
   -2.9143   -2.3051   -1.7771 C   0  0  0  0  0
   -2.7463   -0.9347   -1.5771 C   0  0  0  0  0
   -3.3856   -1.1928    0.7364 C   0  0  0  0  0
    1.8184    1.4726   -2.6478 C   0  0  0  0  0
   -0.1291    2.4602   -1.6140 C   0  0  0  0  0
    0.8587    0.4668   -0.6718 C   0  0  0  0  0
   -3.3205   -3.1388   -0.7224 C   0  0  0  0  0
   -3.5598   -2.5743    0.5532 C   0  0  0  0  0
    0.8399    2.4662   -2.6173 C   0  0  0  0  0
    1.8278    0.4728   -1.6750 C   0  0  0  0  0
   -0.1197    1.4604   -0.6413 C   0  0  0  0  0
   -2.9815   -0.3796   -0.3227 C   0  0  0  0  0
    0.8301    3.5212   -3.6438 C   0  0  0  0  0
    2.8604   -0.5759   -1.7075 C   0  0  0  0  0
   -1.1182    1.4549    0.3938 N   0  0  0  0  0
   -0.0843    4.4265   -3.5931 O   0  0  0  0  0
    2.8468   -1.4870   -0.7976 O   0  0  0  0  0
    1.7360    3.5037   -4.5589 O   0  0  0  0  0
    3.7433   -0.5472   -2.6444 O   0  0  0  0  0
   -3.5946    1.7244    1.0641 O   0  0  0  0  0
   -2.9680    2.0185   -1.3484 O   0  0  0  0  0
   -2.7718    1.3358   -0.0753 S   0  0  0  0  0
  1  2  1  0  0  0
  3 11  1  0  0  0
  4 12  1  0  0  0
  5 11  1  0  0  0
  6 16  1  0  0  0
  7 12  1  0  0  0
  8 13  1  0  0  0
  9 15  1  0  0  0
 10 14  1  0  0  0
 13 17  1  0  0  0
 14 18  1  0  0  0
 15 19  1  0  0  0
 17 20  1  0  0  0
 18 21  1  0  0  0
 26 16  1  0  0  0
 26 19  1  0  0  0
  1  3  2  0  0  0
  2  4  2  0  0  0
  5  6  2  0  0  0
  7 16  2  0  0  0
  8 14  2  0  0  0
  9 13  2  0  0  0
 10 15  2  0  0  0
 11 12  2  0  0  0
 17 22  2  0  0  0
 18 23  2  0  0  0
 26 24  2  0  0  0
 26 25  2  0  0  0
M  CHG  2  20  -1  21  -1
M  END
> <rmsd>
0.519461274

$$$$
ZINC16922821


 26 28  0  0  0  0  0  0  0  0999 V2000
   -3.9991   -3.3358   -0.0809 C   0  0  0  0  0
   -3.5111   -2.4362    0.8668 C   0  0  0  0  0
   -4.3087   -2.8941   -1.3673 C   0  0  0  0  0
    1.3156   -1.3409    1.6518 C   0  0  0  0  0
    2.2260   -1.5072    0.6083 C   0  0  0  0  0
   -3.3329   -1.0949    0.5282 C   0  0  0  0  0
   -4.1304   -1.5529   -1.7059 C   0  0  0  0  0
    0.3888   -0.2992    1.6095 C   0  0  0  0  0
    1.2833    0.4100   -0.5199 C   0  0  0  0  0
    2.2099   -0.6318   -0.4775 C   0  0  0  0  0
   -3.6425   -0.6532   -0.7582 C   0  0  0  0  0
    0.3728    0.5763    0.5236 C   0  0  0  0  0
   -3.5811    1.7500   -0.1555 C   0  0  0  0  0
   -3.1652    1.1213   -2.4086 C   0  0  0  0  0
    3.1716   -0.8076   -1.5781 C   0  0  0  0  0
   -0.7231    2.5909   -0.5167 C   0  0  0  0  0
   -3.1959    3.0967   -0.7218 C   0  0  0  0  0
   -1.8542    3.5466   -0.1672 C   0  0  0  0  0
   -3.4583    0.7309   -1.1074 N   0  0  0  0  0
   -0.5674    1.6333    0.4815 N   0  0  0  0  0
    3.1359    0.0139   -2.5692 O   0  0  0  0  0
   -3.9692    1.6509    1.0063 O   0  0  0  0  0
   -2.9198    0.4375   -3.3913 O   0  0  0  0  0
    4.0167   -1.7772   -1.5136 O   0  0  0  0  0
   -0.0746    2.7014   -1.5517 O   0  0  0  0  0
   -3.1082    2.8724   -2.5076 S   0  0  0  0  0
  1  2  1  0  0  0
  3  7  1  0  0  0
  4  5  1  0  0  0
  6 11  1  0  0  0
  8 12  1  0  0  0
  9 10  1  0  0  0
 10 15  1  0  0  0
 11 19  1  0  0  0
 12 20  1  0  0  0
 13 19  1  0  0  0
 14 19  1  0  0  0
 14 26  1  0  0  0
 15 21  1  0  0  0
 16 20  1  0  0  0
 17 13  1  0  0  0
 17 18  1  0  0  0
 17 26  1  0  0  0
 18 16  1  0  0  0
  1  3  2  0  0  0
  2  6  2  0  0  0
  4  8  2  0  0  0
  5 10  2  0  0  0
  7 11  2  0  0  0
  9 12  2  0  0  0
 13 22  2  0  0  0
 14 23  2  0  0  0
 15 24  2  0  0  0
 16 25  2  0  0  0
M  CHG  1  21  -1
M  END
> <rmsd>
0.329977393

$$$$
ZINC06110541


 26 28  0  0  0  0  0  0  0  0999 V2000
    7.0787   -0.1570   -4.5269 C   0  0  0  0  0
    7.0140    0.5194   -3.3087 C   0  0  0  0  0
    5.9428   -0.7858   -5.0368 C   0  0  0  0  0
    5.8132    0.5669   -2.6005 C   0  0  0  0  0
    4.7421   -0.7384   -4.3285 C   0  0  0  0  0
   -3.3601   -2.5912    0.3934 C   0  0  0  0  0
   -3.0822   -2.1433   -1.9643 C   0  0  0  0  0
   -3.2260   -1.2302    0.6678 C   0  0  0  0  0
   -2.9483   -0.7823   -1.6901 C   0  0  0  0  0
    4.6773   -0.0619   -3.1103 C   0  0  0  0  0
   -3.2882   -3.0478   -0.9226 C   0  0  0  0  0
   -3.0201   -0.3257   -0.3740 C   0  0  0  0  0
    1.3614    1.3810   -2.1456 C   0  0  0  0  0
    0.2875    2.0985   -2.8990 C   0  0  0  0  0
   -0.3866    1.6351   -0.9666 C   0  0  0  0  0
    2.6746    1.0738   -2.7266 C   0  0  0  0  0
    3.4255   -0.0126   -2.3717 C   0  0  0  0  0
    0.8988    1.1199   -0.9694 N   0  0  0  0  0
   -0.7934    2.2135   -2.0590 N   0  0  0  0  0
   -3.4239   -4.4239   -1.2004 N   0  0  0  0  0
   -1.1762    1.5122    0.1920 N   0  0  0  0  0
    3.1316   -0.9165   -1.5059 O   0  0  0  0  0
    0.4218    2.4804   -4.0452 O   0  0  0  0  0
   -3.5260    1.6564    1.2314 O   0  0  0  0  0
   -3.2361    2.1227   -1.2238 O   0  0  0  0  0
   -2.8502    1.4001   -0.0265 S   0  0  0  0  0
  1  2  1  0  0  0
  3  5  1  0  0  0
  4 10  1  0  0  0
  6 11  1  0  0  0
  7  9  1  0  0  0
  8 12  1  0  0  0
 10 17  1  0  0  0
 11 20  1  0  0  0
 13 14  1  0  0  0
 13 16  1  0  0  0
 14 19  1  0  0  0
 15 18  1  0  0  0
 15 21  1  0  0  0
 17 22  1  0  0  0
 26 12  1  0  0  0
 26 21  1  0  0  0
  1  3  2  0  0  0
  2  4  2  0  0  0
  5 10  2  0  0  0
  6  8  2  0  0  0
  7 11  2  0  0  0
  9 12  2  0  0  0
 13 18  2  0  0  0
 14 23  2  0  0  0
 15 19  2  0  0  0
 16 17  2  0  0  0
 26 24  2  0  0  0
 26 25  2  0  0  0
M  CHG  1  22  -1
M  END
> <rmsd>
0.608986378

$$$$
ZINC58645428


 26 28  0  0  0  0  0  0  0  0999 V2000
   -2.7261    1.6601   -5.0699 C   0  0  0  0  0
   -3.9453    1.2841   -4.5064 C   0  0  0  0  0
   -1.5306    1.2053   -4.5131 C   0  0  0  0  0
   -2.8683   -3.1038   -0.7663 C   0  0  0  0  0
   -2.8469   -2.5840    0.5278 C   0  0  0  0  0
   -3.9693    0.4534   -3.3861 C   0  0  0  0  0
   -1.5546    0.3746   -3.3929 C   0  0  0  0  0
   -2.8441   -2.2433   -1.8640 C   0  0  0  0  0
   -0.0326    2.7379   -1.3198 C   0  0  0  0  0
    1.0233    2.8445   -2.2249 C   0  0  0  0  0
   -2.8015   -1.2038    0.7245 C   0  0  0  0  0
    1.0036    0.7875   -0.3404 C   0  0  0  0  0
   -2.7740   -0.0014   -2.8293 C   0  0  0  0  0
   -2.7986   -0.8632   -1.6674 C   0  0  0  0  0
   -0.0425    1.7095   -0.3775 C   0  0  0  0  0
    2.0693    1.9225   -2.1878 C   0  0  0  0  0
    2.0596    0.8941   -1.2456 C   0  0  0  0  0
   -2.7773   -0.3433   -0.3731 C   0  0  0  0  0
    3.1276    2.0528   -3.1158 N   0  0  0  0  0
   -1.1311    1.6002    0.5558 N   0  0  0  0  0
    3.1135   -0.0604   -1.1872 N   0  0  0  0  0
    3.0195   -1.1078   -1.8691 O   0  0  0  0  0
    4.1037    0.1757   -0.4562 O   0  0  0  0  0
   -3.6724    1.6710    0.9934 O   0  0  0  0  0
   -2.8473    2.0773   -1.3419 O   0  0  0  0  0
   -2.7200    1.3823   -0.0694 S   0  0  0  0  0
  1  2  1  0  0  0
  3  7  1  0  0  0
  4  5  1  0  0  0
  6 13  1  0  0  0
  8 14  1  0  0  0
  9 15  1  0  0  0
 10 16  1  0  0  0
 11 18  1  0  0  0
 12 17  1  0  0  0
 13 14  1  0  0  0
 15 20  1  0  0  0
 16 19  1  0  0  0
 17 21  1  0  0  0
 21 22  1  0  0  0
 26 18  1  0  0  0
 26 20  1  0  0  0
  1  3  2  0  0  0
  2  6  2  0  0  0
  4  8  2  0  0  0
  5 11  2  0  0  0
  7 13  2  0  0  0
  9 10  2  0  0  0
 12 15  2  0  0  0
 14 18  2  0  0  0
 16 17  2  0  0  0
 21 23  2  0  0  0
 26 24  2  0  0  0
 26 25  2  0  0  0
M  CHG  2  21   1  22  -1
M  END
> <rmsd>
0.705464602

$$$$
ZINC48354133


 26 28  0  0  0  0  0  0  0  0999 V2000
   -4.4287   -3.1420   -0.9737 C   0  0  0  0  0
   -5.3121   -2.1848   -0.4750 C   0  0  0  0  0
   -3.0821   -3.1041   -0.6119 C   0  0  0  0  0
   -4.8489   -1.1894    0.3854 C   0  0  0  0  0
   -2.6189   -2.1087    0.2485 C   0  0  0  0  0
   -2.1054    2.9799   -0.0271 C   0  0  0  0  0
   -3.5023   -1.1513    0.7472 C   0  0  0  0  0
   -3.5019    3.0242    0.1451 C   0  0  0  0  0
   -1.7283    1.7834    0.5322 C   0  0  0  0  0
    3.9429    2.1657    0.7418 C   0  0  0  0  0
    3.9345    0.8038   -0.9477 C   0  0  0  0  0
    0.7703    1.6945    0.2298 C   0  0  0  0  0
   -4.4232    4.0943   -0.2740 C   0  0  0  0  0
    3.8826    4.8683    3.4981 C   0  0  0  0  0
   -3.0070   -0.0868    1.6671 C   0  0  0  0  0
    3.5056    2.8712    1.9601 C   0  0  0  0  0
    1.8912    0.7287    0.5668 C   0  0  0  0  0
    4.3590    4.1203    2.2630 C   0  0  0  0  0
   -3.9796    1.9419    0.7651 N   0  0  0  0  0
    5.0653    2.3469    0.0832 N   0  0  0  0  0
    5.0599    1.4805   -0.9917 N   0  0  0  0  0
   -2.8772    1.2062    0.9873 N   0  0  0  0  0
    3.2005    1.2030    0.1278 N   0  0  0  0  0
   -0.4939    1.2051    0.6556 N   0  0  0  0  0
    0.9734    2.7612   -0.3407 O   0  0  0  0  0
    3.4510   -0.3930   -2.0491 S   0  0  0  0  0
  1  2  1  0  0  0
  3  5  1  0  0  0
  4  7  1  0  0  0
  6  8  1  0  0  0
  9 22  1  0  0  0
  9 24  1  0  0  0
 10 23  1  0  0  0
 11 21  1  0  0  0
 11 23  1  0  0  0
 12 24  1  0  0  0
 13  8  1  0  0  0
 14 18  1  0  0  0
 15  7  1  0  0  0
 15 22  1  0  0  0
 16 10  1  0  0  0
 16 18  1  0  0  0
 17 12  1  0  0  0
 17 23  1  0  0  0
 20 21  1  0  0  0
 22 19  1  0  0  0
  1  3  2  0  0  0
  2  4  2  0  0  0
  5  7  2  0  0  0
  6  9  2  0  0  0
  8 19  2  0  0  0
 10 20  2  0  0  0
 11 26  2  0  0  0
 12 25  2  0  0  0
M  CHG  1  26  -1
M  END
> <rmsd>
0.521693647

$$$$
ZINC12526247


 24 25  0  0  0  0  0  0  0  0999 V2000
    0.6988    2.4350   -2.7379 C   0  0  0  0  0
   -3.6003   -3.0963   -0.7016 C   0  0  0  0  0
   -0.1952    2.4470   -1.6674 C   0  0  0  0  0
    1.5435    1.3415   -2.9290 C   0  0  0  0  0
   -3.3246   -2.6343    0.5852 C   0  0  0  0  0
   -3.4133   -0.8423   -1.5510 C   0  0  0  0  0
   -3.6445   -2.2003   -1.7698 C   0  0  0  0  0
    0.6001    0.2721   -0.9787 C   0  0  0  0  0
   -0.2445    1.3656   -0.7877 C   0  0  0  0  0
    1.4942    0.2600   -2.0494 C   0  0  0  0  0
   -3.1377   -0.3802   -0.2640 C   0  0  0  0  0
   -3.0934   -1.2762    0.8041 C   0  0  0  0  0
   -3.9371   -2.6883   -3.1271 C   0  0  0  0  0
    0.5426   -0.8866   -0.0309 C   0  0  0  0  0
   -1.1743    1.3995    0.3090 N   0  0  0  0  0
    2.3663   -0.8429   -2.2652 N   0  0  0  0  0
   -3.9726   -1.8408   -4.0963 O   0  0  0  0  0
    3.4982   -0.8341   -1.7266 O   0  0  0  0  0
   -4.1485   -3.9468   -3.3014 O   0  0  0  0  0
    1.9766   -1.7908   -2.9870 O   0  0  0  0  0
   -3.5915    1.7547    1.1366 O   0  0  0  0  0
   -3.1156    2.0069   -1.3148 O   0  0  0  0  0
   -2.8569    1.3363   -0.0490 S   0  0  0  0  0
   -2.7564   -0.7554    2.4156 Cl  0  0  0  0  0
  1  3  1  0  0  0
  2  7  1  0  0  0
  4 10  1  0  0  0
  5 12  1  0  0  0
  6 11  1  0  0  0
  7 13  1  0  0  0
  8  9  1  0  0  0
  9 15  1  0  0  0
 10 16  1  0  0  0
 12 24  1  0  0  0
 13 17  1  0  0  0
 14  8  1  0  0  0
 16 18  1  0  0  0
 23 11  1  0  0  0
 23 15  1  0  0  0
  1  4  2  0  0  0
  2  5  2  0  0  0
  3  9  2  0  0  0
  6  7  2  0  0  0
  8 10  2  0  0  0
 11 12  2  0  0  0
 13 19  2  0  0  0
 16 20  2  0  0  0
 23 21  2  0  0  0
 23 22  2  0  0  0
M  CHG  3  16   1  17  -1  18  -1
M  END
> <rmsd>
0.399223983

$$$$
ZINC12526247


 24 25  0  0  0  0  0  0  0  0999 V2000
    0.7349    2.4835   -2.6948 C   0  0  0  0  0
   -3.6223   -3.0882   -0.6237 C   0  0  0  0  0
   -0.1680    2.4787   -1.6317 C   0  0  0  0  0
    1.5737    1.3885   -2.9025 C   0  0  0  0  0
   -3.2517   -2.3161   -1.7247 C   0  0  0  0  0
   -3.5122   -1.1297    0.7867 C   0  0  0  0  0
   -3.7526   -2.4949    0.6320 C   0  0  0  0  0
    0.6067    0.2839   -0.9837 C   0  0  0  0  0
   -0.2321    1.3789   -0.7761 C   0  0  0  0  0
    1.5096    0.2887   -2.0469 C   0  0  0  0  0
   -3.1414   -0.3576   -0.3143 C   0  0  0  0  0
   -3.0112   -0.9509   -1.5700 C   0  0  0  0  0
   -4.1420   -3.3104    1.7935 C   0  0  0  0  0
    0.5333   -0.8946   -0.0617 C   0  0  0  0  0
   -1.1708    1.3956    0.3134 N   0  0  0  0  0
    2.3759   -0.8154   -2.2793 N   0  0  0  0  0
   -4.2551   -2.7389    2.9423 O   0  0  0  0  0
    3.5033   -0.8262   -1.7314 O   0  0  0  0  0
   -4.3565   -4.5689    1.6235 O   0  0  0  0  0
    1.9859   -1.7447   -3.0248 O   0  0  0  0  0
   -3.5925    1.7497    1.1284 O   0  0  0  0  0
   -3.0942    2.0514   -1.3129 O   0  0  0  0  0
   -2.8508    1.3519   -0.0598 S   0  0  0  0  0
   -2.5552   -0.0398   -2.9642 Cl  0  0  0  0  0
  1  3  1  0  0  0
  2  7  1  0  0  0
  4 10  1  0  0  0
  5 12  1  0  0  0
  6 11  1  0  0  0
  7 13  1  0  0  0
  8  9  1  0  0  0
  9 15  1  0  0  0
 10 16  1  0  0  0
 12 24  1  0  0  0
 13 17  1  0  0  0
 14  8  1  0  0  0
 16 18  1  0  0  0
 23 11  1  0  0  0
 23 15  1  0  0  0
  1  4  2  0  0  0
  2  5  2  0  0  0
  3  9  2  0  0  0
  6  7  2  0  0  0
  8 10  2  0  0  0
 11 12  2  0  0  0
 13 19  2  0  0  0
 16 20  2  0  0  0
 23 21  2  0  0  0
 23 22  2  0  0  0
M  CHG  3  16   1  17  -1  18  -1
M  END
> <rmsd>
0.386309534

$$$$
ZINC55612180


 25 26  0  0  0  0  0  0  0  0999 V2000
    0.8300    0.4721   -0.6479 C   0  0  0  0  0
   -2.9449   -2.6492    0.5323 C   0  0  0  0  0
   -3.1465   -0.8654   -1.6032 C   0  0  0  0  0
    1.0270    2.6497   -2.3805 C   0  0  0  0  0
    1.8355    0.5060   -1.6140 C   0  0  0  0  0
   -2.8107   -1.2785    0.7535 C   0  0  0  0  0
   -3.2806   -2.2360   -1.8243 C   0  0  0  0  0
   -0.0771    1.5271   -0.5482 C   0  0  0  0  0
   -3.1798   -3.1280   -0.7565 C   0  0  0  0  0
    1.9341    1.5948   -2.4803 C   0  0  0  0  0
    0.0213    2.6159   -1.4144 C   0  0  0  0  0
   -2.9115   -0.3866   -0.3142 C   0  0  0  0  0
    2.7915   -0.6086   -1.7167 C   0  0  0  0  0
   -2.5591   -0.7985    2.1455 C   0  0  0  0  0
   -3.5318   -2.7312   -3.2104 C   0  0  0  0  0
   -3.1912   -5.3087    0.1921 C   0  0  0  0  0
   -1.1057    1.4901    0.4416 N   0  0  0  0  0
    2.6765   -1.6004   -0.9034 O   0  0  0  0  0
    3.7115   -0.5549   -2.6162 O   0  0  0  0  0
   -3.6151    1.7127    1.0362 O   0  0  0  0  0
   -2.9177    2.0041   -1.3572 O   0  0  0  0  0
   -3.3083   -4.4698   -0.9552 O   0  0  0  0  0
    2.8966    1.6377   -3.4122 F   0  0  0  0  0
   -0.8452    3.6350   -1.3272 F   0  0  0  0  0
   -2.7454    1.3585   -0.0700 S   0  0  0  0  0
  1  8  1  0  0  0
  2  6  1  0  0  0
  3 12  1  0  0  0
  4 11  1  0  0  0
  5 10  1  0  0  0
  5 13  1  0  0  0
  7  9  1  0  0  0
  8 17  1  0  0  0
  9 22  1  0  0  0
 10 23  1  0  0  0
 11 24  1  0  0  0
 13 18  1  0  0  0
 14  6  1  0  0  0
 15  7  1  0  0  0
 16 22  1  0  0  0
 25 12  1  0  0  0
 25 17  1  0  0  0
  1  5  2  0  0  0
  2  9  2  0  0  0
  3  7  2  0  0  0
  4 10  2  0  0  0
  6 12  2  0  0  0
  8 11  2  0  0  0
 13 19  2  0  0  0
 25 20  2  0  0  0
 25 21  2  0  0  0
M  CHG  1  18  -1
M  END
> <rmsd>
0.580472708

$$$$
ZINC47317965


 25 26  0  0  0  0  0  0  0  0999 V2000
    0.8313    0.4731   -0.6469 C   0  0  0  0  0
   -3.3836   -2.2428   -1.7924 C   0  0  0  0  0
   -2.8429   -2.6369    0.5291 C   0  0  0  0  0
    1.0377    2.6614   -2.3648 C   0  0  0  0  0
    1.8395    0.5109   -1.6101 C   0  0  0  0  0
   -3.2502   -0.8692   -1.5903 C   0  0  0  0  0
   -2.7094   -1.2632    0.7311 C   0  0  0  0  0
   -0.0738    1.5294   -0.5426 C   0  0  0  0  0
   -3.1800   -3.1268   -0.7327 C   0  0  0  0  0
    1.9427    1.6051   -2.4690 C   0  0  0  0  0
    0.0295    2.6236   -1.4015 C   0  0  0  0  0
   -2.9130   -0.3794   -0.3286 C   0  0  0  0  0
    2.7932   -0.6051   -1.7175 C   0  0  0  0  0
   -3.4770    0.0466   -2.7490 C   0  0  0  0  0
   -2.3470   -0.7751    2.0960 C   0  0  0  0  0
   -3.6594   -4.8994   -2.2437 C   0  0  0  0  0
   -1.1050    1.4883    0.4441 N   0  0  0  0  0
    2.6738   -1.6020   -0.9109 O   0  0  0  0  0
    3.7157   -0.5477   -2.6143 O   0  0  0  0  0
   -3.6154    1.7127    1.0336 O   0  0  0  0  0
   -2.9110    2.0180   -1.3560 O   0  0  0  0  0
   -3.3116   -4.4671   -0.9292 O   0  0  0  0  0
    2.9078    1.6518   -3.3982 F   0  0  0  0  0
   -0.8350    3.6440   -1.3100 F   0  0  0  0  0
   -2.7436    1.3637   -0.0725 S   0  0  0  0  0
  1  8  1  0  0  0
  2  6  1  0  0  0
  3  9  1  0  0  0
  4 11  1  0  0  0
  5 10  1  0  0  0
  5 13  1  0  0  0
  7 12  1  0  0  0
  8 17  1  0  0  0
  9 22  1  0  0  0
 10 23  1  0  0  0
 11 24  1  0  0  0
 13 18  1  0  0  0
 14  6  1  0  0  0
 15  7  1  0  0  0
 16 22  1  0  0  0
 25 12  1  0  0  0
 25 17  1  0  0  0
  1  5  2  0  0  0
  2  9  2  0  0  0
  3  7  2  0  0  0
  4 10  2  0  0  0
  6 12  2  0  0  0
  8 11  2  0  0  0
 13 19  2  0  0  0
 25 20  2  0  0  0
 25 21  2  0  0  0
M  CHG  1  18  -1
M  END
> <rmsd>
0.578294694

$$$$
ZINC32601594


 26 28  0  0  0  0  0  0  0  0999 V2000
   -3.8638   -3.3241    0.0882 C   0  0  0  0  0
   -3.7121   -2.3082    1.0272 C   0  0  0  0  0
   -3.6776   -3.0550   -1.2681 C   0  0  0  0  0
   -3.3738   -1.0194    0.6138 C   0  0  0  0  0
    1.6325    1.7815   -1.7079 C   0  0  0  0  0
    1.6938   -0.4160   -0.7059 C   0  0  0  0  0
    0.5138    2.1012   -0.9387 C   0  0  0  0  0
    0.5750   -0.0964    0.0634 C   0  0  0  0  0
   -2.8073   -0.1860   -3.4768 C   0  0  0  0  0
   -2.6557    0.8298   -2.5377 C   0  0  0  0  0
   -3.3368   -1.7635   -1.7022 C   0  0  0  0  0
   -3.1827   -0.7306   -0.7472 C   0  0  0  0  0
    2.2225    0.5229   -1.5916 C   0  0  0  0  0
   -0.0150    1.1623   -0.0530 C   0  0  0  0  0
   -3.1456   -1.4749   -3.0633 C   0  0  0  0  0
   -2.8419    0.5609   -1.1814 C   0  0  0  0  0
    3.4037    0.1858   -2.4027 C   0  0  0  0  0
   -2.1685   -4.1719   -5.2391 C   0  0  0  0  0
   -2.1383   -2.7164   -4.8239 C   0  0  0  0  0
   -1.1695    1.4912    0.7390 N   0  0  0  0  0
    3.9293   -0.9831   -2.2759 O   0  0  0  0  0
    3.8726    1.0708   -3.2121 O   0  0  0  0  0
   -3.7179    1.8645    0.8823 O   0  0  0  0  0
   -2.4206    3.1153   -0.8646 O   0  0  0  0  0
   -3.2819   -2.4391   -4.0209 O   0  0  0  0  0
   -2.6250    1.9104   -0.0766 S   0  0  0  0  0
  1  2  1  0  0  0
  3 11  1  0  0  0
  4 12  1  0  0  0
  5 13  1  0  0  0
  6  8  1  0  0  0
  7 14  1  0  0  0
  9 15  1  0  0  0
 10 16  1  0  0  0
 11 12  1  0  0  0
 13 17  1  0  0  0
 14 20  1  0  0  0
 15 25  1  0  0  0
 17 21  1  0  0  0
 18 19  1  0  0  0
 19 25  1  0  0  0
 26 16  1  0  0  0
 26 20  1  0  0  0
  1  3  2  0  0  0
  2  4  2  0  0  0
  5  7  2  0  0  0
  6 13  2  0  0  0
  8 14  2  0  0  0
  9 10  2  0  0  0
 11 15  2  0  0  0
 12 16  2  0  0  0
 17 22  2  0  0  0
 26 23  2  0  0  0
 26 24  2  0  0  0
M  CHG  1  21  -1
M  END
> <rmsd>
0.467688352

$$$$
ZINC32601594


 26 28  0  0  0  0  0  0  0  0999 V2000
   -3.8637   -3.3240    0.0878 C   0  0  0  0  0
   -3.7121   -2.3081    1.0269 C   0  0  0  0  0
   -3.6776   -3.0549   -1.2685 C   0  0  0  0  0
   -3.3738   -1.0194    0.6135 C   0  0  0  0  0
    1.6326    1.7817   -1.7081 C   0  0  0  0  0
    1.6938   -0.4159   -0.7061 C   0  0  0  0  0
    0.5138    2.1013   -0.9389 C   0  0  0  0  0
    0.5750   -0.0963    0.0632 C   0  0  0  0  0
   -2.8073   -0.1859   -3.4771 C   0  0  0  0  0
   -2.6557    0.8299   -2.5380 C   0  0  0  0  0
   -3.3368   -1.7635   -1.7026 C   0  0  0  0  0
   -3.1827   -0.7305   -0.7476 C   0  0  0  0  0
    2.2225    0.5230   -1.5918 C   0  0  0  0  0
   -0.0150    1.1623   -0.0533 C   0  0  0  0  0
   -3.1456   -1.4747   -3.0637 C   0  0  0  0  0
   -2.8419    0.5610   -1.1817 C   0  0  0  0  0
    3.4037    0.1859   -2.4029 C   0  0  0  0  0
   -5.5809   -2.8265   -4.5606 C   0  0  0  0  0
   -4.2728   -2.2191   -5.0209 C   0  0  0  0  0
   -1.1695    1.4913    0.7387 N   0  0  0  0  0
    3.9294   -0.9830   -2.2762 O   0  0  0  0  0
    3.8727    1.0709   -3.2123 O   0  0  0  0  0
   -3.7179    1.8645    0.8820 O   0  0  0  0  0
   -2.4206    3.1154   -0.8648 O   0  0  0  0  0
   -3.2818   -2.4390   -4.0212 O   0  0  0  0  0
   -2.6250    1.9105   -0.0769 S   0  0  0  0  0
  1  2  1  0  0  0
  3 11  1  0  0  0
  4 12  1  0  0  0
  5 13  1  0  0  0
  6  8  1  0  0  0
  7 14  1  0  0  0
  9 15  1  0  0  0
 10 16  1  0  0  0
 11 12  1  0  0  0
 13 17  1  0  0  0
 14 20  1  0  0  0
 15 25  1  0  0  0
 17 21  1  0  0  0
 18 19  1  0  0  0
 19 25  1  0  0  0
 26 16  1  0  0  0
 26 20  1  0  0  0
  1  3  2  0  0  0
  2  4  2  0  0  0
  5  7  2  0  0  0
  6 13  2  0  0  0
  8 14  2  0  0  0
  9 10  2  0  0  0
 11 15  2  0  0  0
 12 16  2  0  0  0
 17 22  2  0  0  0
 26 23  2  0  0  0
 26 24  2  0  0  0
M  CHG  1  21  -1
M  END
> <rmsd>
0.467709631

$$$$
ZINC04809530


 24 25  0  0  0  0  0  0  0  0999 V2000
    0.7239    2.4731   -2.7018 C   0  0  0  0  0
   -0.1780    2.4707   -1.6377 C   0  0  0  0  0
    1.5650    1.3792   -2.9055 C   0  0  0  0  0
   -3.3266   -2.6151    0.6030 C   0  0  0  0  0
   -3.6064   -3.0944   -0.6767 C   0  0  0  0  0
   -3.4241   -0.8515   -1.5564 C   0  0  0  0  0
    0.6027    0.2806   -0.9810 C   0  0  0  0  0
   -0.2385    1.3745   -0.7772 C   0  0  0  0  0
    1.5045    0.2830   -2.0451 C   0  0  0  0  0
   -3.0957   -1.2541    0.8031 C   0  0  0  0  0
   -3.1445   -0.3723   -0.2766 C   0  0  0  0  0
   -3.6551   -2.2126   -1.7564 C   0  0  0  0  0
    0.5332   -0.8938   -0.0538 C   0  0  0  0  0
   -3.3286   -0.4830    4.3794 C   0  0  0  0  0
   -3.8201   -1.0330    3.0574 C   0  0  0  0  0
   -1.1711    1.3936    0.3072 N   0  0  0  0  0
    2.3733   -0.8199   -2.2735 N   0  0  0  0  0
    3.5013   -0.8256   -1.7268 O   0  0  0  0  0
    1.9848   -1.7535   -3.0145 O   0  0  0  0  0
   -3.5945    1.7564    1.1347 O   0  0  0  0  0
   -3.1101    2.0206   -1.3137 O   0  0  0  0  0
   -2.8243   -0.8081    2.0617 O   0  0  0  0  0
   -2.8550    1.3588   -0.0487 S   0  0  0  0  0
   -3.9995   -2.8046   -3.3352 Cl  0  0  0  0  0
  1  3  1  0  0  0
  2  8  1  0  0  0
  4 10  1  0  0  0
  5 12  1  0  0  0
  6 11  1  0  0  0
  7  9  1  0  0  0
  8 16  1  0  0  0
  9 17  1  0  0  0
 10 22  1  0  0  0
 12 24  1  0  0  0
 13  7  1  0  0  0
 14 15  1  0  0  0
 15 22  1  0  0  0
 17 18  1  0  0  0
 23 11  1  0  0  0
 23 16  1  0  0  0
  1  2  2  0  0  0
  3  9  2  0  0  0
  4  5  2  0  0  0
  6 12  2  0  0  0
  7  8  2  0  0  0
 10 11  2  0  0  0
 17 19  2  0  0  0
 23 20  2  0  0  0
 23 21  2  0  0  0
M  CHG  2  17   1  18  -1
M  END
> <rmsd>
0.393762231

$$$$
ZINC04809530


 24 25  0  0  0  0  0  0  0  0999 V2000
    0.7397    2.4934   -2.6822 C   0  0  0  0  0
   -0.1660    2.4837   -1.6214 C   0  0  0  0  0
    1.5784    1.3990   -2.8931 C   0  0  0  0  0
   -3.2516   -2.3025   -1.7342 C   0  0  0  0  0
   -3.6175   -3.0908   -0.6432 C   0  0  0  0  0
   -3.5117   -1.1512    0.7935 C   0  0  0  0  0
    0.6059    0.2853   -0.9824 C   0  0  0  0  0
   -0.2329    1.3798   -0.7714 C   0  0  0  0  0
    1.5115    0.2949   -2.0432 C   0  0  0  0  0
   -3.0156   -0.9387   -1.5614 C   0  0  0  0  0
   -3.1457   -0.3630   -0.2976 C   0  0  0  0  0
   -3.7475   -2.5151    0.6207 C   0  0  0  0  0
    0.5295   -0.8975   -0.0665 C   0  0  0  0  0
   -2.1636    0.1369   -4.9608 C   0  0  0  0  0
   -2.5512   -0.8632   -3.8927 C   0  0  0  0  0
   -1.1692    1.3915    0.3098 N   0  0  0  0  0
    2.3779   -0.8084   -2.2788 N   0  0  0  0  0
    3.5038   -0.8226   -1.7281 O   0  0  0  0  0
    1.9893   -1.7338   -3.0298 O   0  0  0  0  0
   -3.5946    1.7538    1.1320 O   0  0  0  0  0
   -3.1006    2.0394   -1.3122 O   0  0  0  0  0
   -2.6592   -0.1878   -2.6412 O   0  0  0  0  0
   -2.8519    1.3651   -0.0525 S   0  0  0  0  0
   -4.1996   -3.4880    1.9663 Cl  0  0  0  0  0
  1  3  1  0  0  0
  2  8  1  0  0  0
  4 10  1  0  0  0
  5 12  1  0  0  0
  6 11  1  0  0  0
  7  9  1  0  0  0
  8 16  1  0  0  0
  9 17  1  0  0  0
 10 22  1  0  0  0
 12 24  1  0  0  0
 13  7  1  0  0  0
 14 15  1  0  0  0
 15 22  1  0  0  0
 17 18  1  0  0  0
 23 11  1  0  0  0
 23 16  1  0  0  0
  1  2  2  0  0  0
  3  9  2  0  0  0
  4  5  2  0  0  0
  6 12  2  0  0  0
  7  8  2  0  0  0
 10 11  2  0  0  0
 17 19  2  0  0  0
 23 20  2  0  0  0
 23 21  2  0  0  0
M  CHG  2  17   1  18  -1
M  END
> <rmsd>
0.388262868

$$$$
ZINC02497174


 21 22  0  0  0  0  0  0  0  0999 V2000
   -0.1042    2.4983   -1.5722 C   0  0  0  0  0
    0.8726    2.5204   -2.5676 C   0  0  0  0  0
   -3.3782   -1.1941    0.7389 C   0  0  0  0  0
   -2.7427   -0.9373   -1.5778 C   0  0  0  0  0
   -3.5439   -2.5649    0.5415 C   0  0  0  0  0
   -2.9083   -2.3081   -1.7752 C   0  0  0  0  0
    0.8588    0.4736   -0.6721 C   0  0  0  0  0
    1.8356    0.4956   -1.6675 C   0  0  0  0  0
   -0.1112    1.4750   -0.6244 C   0  0  0  0  0
    1.8425    1.5191   -2.6153 C   0  0  0  0  0
   -2.9776   -0.3803   -0.3209 C   0  0  0  0  0
   -3.3089   -3.1220   -0.7156 C   0  0  0  0  0
    2.8532   -0.5700   -1.7031 C   0  0  0  0  0
   -1.1113    1.4527    0.3944 N   0  0  0  0  0
    2.6111   -1.6325   -2.3876 O   0  0  0  0  0
    3.9480   -0.4009   -1.0482 O   0  0  0  0  0
   -3.5974    1.7240    1.0626 O   0  0  0  0  0
   -2.9630    2.0172   -1.3480 O   0  0  0  0  0
    2.7885    1.5581   -3.5955 O   0  0  0  0  0
   -2.7676    1.3592   -0.0704 S   0  0  0  0  0
   -3.5340   -4.9792   -0.9832 Br  0  0  0  0  0
  1  9  1  0  0  0
  2 10  1  0  0  0
  3  5  1  0  0  0
  4 11  1  0  0  0
  6 12  1  0  0  0
  7  8  1  0  0  0
  8 13  1  0  0  0
  9 14  1  0  0  0
 10 19  1  0  0  0
 12 21  1  0  0  0
 13 15  1  0  0  0
 20 11  1  0  0  0
 20 14  1  0  0  0
  1  2  2  0  0  0
  3 11  2  0  0  0
  4  6  2  0  0  0
  5 12  2  0  0  0
  7  9  2  0  0  0
  8 10  2  0  0  0
 13 16  2  0  0  0
 20 17  2  0  0  0
 20 18  2  0  0  0
M  CHG  1  15  -1
M  END
> <rmsd>
0.523577571

$$$$
ZINC02497174


 21 22  0  0  0  0  0  0  0  0999 V2000
   -0.0357    2.7639   -1.2880 C   0  0  0  0  0
    1.0246    2.8796   -2.1868 C   0  0  0  0  0
   -3.2106   -1.2119    0.6631 C   0  0  0  0  0
   -2.3847   -0.8639   -1.5805 C   0  0  0  0  0
   -3.2492   -2.5875    0.4355 C   0  0  0  0  0
   -2.4232   -2.2396   -1.8081 C   0  0  0  0  0
    0.9953    0.8031   -0.3242 C   0  0  0  0  0
    2.0556    0.9187   -1.2230 C   0  0  0  0  0
   -0.0504    1.7257   -0.3566 C   0  0  0  0  0
    2.0703    1.9571   -2.1543 C   0  0  0  0  0
   -2.7784   -0.3501   -0.3451 C   0  0  0  0  0
   -2.8555   -3.1014   -0.8001 C   0  0  0  0  0
    3.1525   -0.0645   -1.1747 C   0  0  0  0  0
   -1.1360    1.6075    0.5632 N   0  0  0  0  0
    3.0592   -1.1297   -1.8908 O   0  0  0  0  0
    4.1651    0.1762   -0.4178 O   0  0  0  0  0
   -3.6870    1.6742    0.9976 O   0  0  0  0  0
   -2.8564    2.0600   -1.3392 O   0  0  0  0  0
    3.0973    2.0870   -3.0406 O   0  0  0  0  0
   -2.7295    1.3955   -0.0564 S   0  0  0  0  0
   -2.9084   -4.9651   -1.1086 Br  0  0  0  0  0
  1  9  1  0  0  0
  2 10  1  0  0  0
  3  5  1  0  0  0
  4 11  1  0  0  0
  6 12  1  0  0  0
  7  8  1  0  0  0
  8 13  1  0  0  0
  9 14  1  0  0  0
 10 19  1  0  0  0
 12 21  1  0  0  0
 13 15  1  0  0  0
 20 11  1  0  0  0
 20 14  1  0  0  0
  1  2  2  0  0  0
  3 11  2  0  0  0
  4  6  2  0  0  0
  5 12  2  0  0  0
  7  9  2  0  0  0
  8 10  2  0  0  0
 13 16  2  0  0  0
 20 17  2  0  0  0
 20 18  2  0  0  0
M  CHG  1  15  -1
M  END
> <rmsd>
0.704263449

$$$$
ZINC06919662


 21 22  0  0  0  0  0  0  0  0999 V2000
    1.6660    2.5893   -1.4424 C   0  0  0  0  0
    0.5219    2.6302   -0.6456 C   0  0  0  0  0
    2.2923    1.3702   -1.7015 C   0  0  0  0  0
   -3.4710   -1.1495    0.7599 C   0  0  0  0  0
   -3.6009   -2.5302    0.6101 C   0  0  0  0  0
   -2.3975   -1.0161   -1.4004 C   0  0  0  0  0
    0.6304    0.2328   -0.3669 C   0  0  0  0  0
   -2.5274   -2.3968   -1.5502 C   0  0  0  0  0
    0.0041    1.4520   -0.1078 C   0  0  0  0  0
    1.7744    0.1919   -1.1637 C   0  0  0  0  0
   -2.8693   -0.3924   -0.2454 C   0  0  0  0  0
   -3.1291   -3.1538   -0.5449 C   0  0  0  0  0
   -2.0076   -3.0216   -2.8046 C   0  0  0  0  0
   -1.1753    1.4945    0.7141 N   0  0  0  0  0
    2.4118   -1.0488   -1.4288 N   0  0  0  0  0
    3.4393   -1.0631   -2.1490 O   0  0  0  0  0
    1.9305   -2.0975   -0.9353 O   0  0  0  0  0
   -3.7339    1.7790    0.8786 O   0  0  0  0  0
   -2.6530    1.9460   -1.3803 O   0  0  0  0  0
   -2.7076    1.3359   -0.0575 S   0  0  0  0  0
   -3.3274   -5.0333   -0.7023 Br  0  0  0  0  0
  1  3  1  0  0  0
  2  9  1  0  0  0
  4 11  1  0  0  0
  5 12  1  0  0  0
  6  8  1  0  0  0
  7 10  1  0  0  0
  9 14  1  0  0  0
 10 15  1  0  0  0
 12 21  1  0  0  0
 13  8  1  0  0  0
 15 16  1  0  0  0
 20 11  1  0  0  0
 20 14  1  0  0  0
  1  2  2  0  0  0
  3 10  2  0  0  0
  4  5  2  0  0  0
  6 11  2  0  0  0
  7  9  2  0  0  0
  8 12  2  0  0  0
 15 17  2  0  0  0
 20 18  2  0  0  0
 20 19  2  0  0  0
M  CHG  2  15   1  16  -1
M  END
> <rmsd>
0.559467673

$$$$
ZINC00953477


 24 25  0  0  0  0  0  0  0  0999 V2000
   -3.5506   -2.5630    0.5457 C   0  0  0  0  0
   -3.3843   -1.1920    0.7408 C   0  0  0  0  0
    1.8471    1.5095   -2.6077 C   0  0  0  0  0
   -0.1011    2.4921   -1.5704 C   0  0  0  0  0
    0.8579    0.4676   -0.6654 C   0  0  0  0  0
   -2.7440   -0.9401   -1.5752 C   0  0  0  0  0
    0.8781    2.5118   -2.5637 C   0  0  0  0  0
    1.8370    0.4874   -1.6586 C   0  0  0  0  0
   -0.1112    1.4700   -0.6213 C   0  0  0  0  0
   -3.3136   -3.1227   -0.7098 C   0  0  0  0  0
   -2.9810   -0.3805   -0.3195 C   0  0  0  0  0
   -2.9103   -2.3112   -1.7702 C   0  0  0  0  0
    0.8889    3.5904   -3.5653 C   0  0  0  0  0
    2.8598   -0.5704   -1.7053 C   0  0  0  0  0
   -1.1128    1.4504    0.3961 N   0  0  0  0  0
   -0.0173    4.5034   -3.5025 O   0  0  0  0  0
    2.8281   -1.5023   -0.8171 O   0  0  0  0  0
    1.8038    3.5853   -4.4717 O   0  0  0  0  0
    3.7523   -0.5287   -2.6326 O   0  0  0  0  0
   -3.5994    1.7263    1.0606 O   0  0  0  0  0
   -2.9612    2.0158   -1.3494 O   0  0  0  0  0
   -3.4773   -4.4422   -0.8814 F   0  0  0  0  0
   -2.7685    1.3589   -0.0708 S   0  0  0  0  0
   -2.6142   -2.9962   -3.3217 Cl  0  0  0  0  0
  1  2  1  0  0  0
  3  7  1  0  0  0
  4  9  1  0  0  0
  5  8  1  0  0  0
  6 11  1  0  0  0
  7 13  1  0  0  0
  8 14  1  0  0  0
  9 15  1  0  0  0
 10 12  1  0  0  0
 10 22  1  0  0  0
 12 24  1  0  0  0
 13 16  1  0  0  0
 14 17  1  0  0  0
 23 11  1  0  0  0
 23 15  1  0  0  0
  1 10  2  0  0  0
  2 11  2  0  0  0
  3  8  2  0  0  0
  4  7  2  0  0  0
  5  9  2  0  0  0
  6 12  2  0  0  0
 13 18  2  0  0  0
 14 19  2  0  0  0
 23 20  2  0  0  0
 23 21  2  0  0  0
M  CHG  2  16  -1  17  -1
M  END
> <rmsd>
0.518994629

$$$$
ZINC00953477


 24 25  0  0  0  0  0  0  0  0999 V2000
   -2.9120   -2.3113   -1.7704 C   0  0  0  0  0
   -2.7439   -0.9406   -1.5743 C   0  0  0  0  0
    1.8472    1.5084   -2.6086 C   0  0  0  0  0
   -0.1011    2.4910   -1.5715 C   0  0  0  0  0
    0.8587    0.4674   -0.6653 C   0  0  0  0  0
   -3.3840   -1.1935    0.7417 C   0  0  0  0  0
    0.8779    2.5104   -2.5649 C   0  0  0  0  0
    1.8376    0.4869   -1.6588 C   0  0  0  0  0
   -0.1107    1.4695   -0.6217 C   0  0  0  0  0
   -3.3162   -3.1231   -0.7105 C   0  0  0  0  0
   -2.9798   -0.3817   -0.3182 C   0  0  0  0  0
   -3.5522   -2.5642    0.5455 C   0  0  0  0  0
    0.8881    3.5885   -3.5672 C   0  0  0  0  0
    2.8607   -0.5706   -1.7051 C   0  0  0  0  0
   -1.1121    1.4502    0.3960 N   0  0  0  0  0
   -0.0183    4.5012   -3.5048 O   0  0  0  0  0
    2.8295   -1.5020   -0.8163 O   0  0  0  0  0
    1.8028    3.5830   -4.4738 O   0  0  0  0  0
    3.7530   -0.5292   -2.6326 O   0  0  0  0  0
   -3.5986    1.7257    1.0608 O   0  0  0  0  0
   -2.9610    2.0140   -1.3496 O   0  0  0  0  0
   -3.4740   -4.4387   -0.9150 F   0  0  0  0  0
   -2.7678    1.3579   -0.0706 S   0  0  0  0  0
   -4.0531   -3.5605    1.8571 Cl  0  0  0  0  0
  1  2  1  0  0  0
  3  7  1  0  0  0
  4  9  1  0  0  0
  5  8  1  0  0  0
  6 11  1  0  0  0
  7 13  1  0  0  0
  8 14  1  0  0  0
  9 15  1  0  0  0
 10 12  1  0  0  0
 10 22  1  0  0  0
 12 24  1  0  0  0
 13 16  1  0  0  0
 14 17  1  0  0  0
 23 11  1  0  0  0
 23 15  1  0  0  0
  1 10  2  0  0  0
  2 11  2  0  0  0
  3  8  2  0  0  0
  4  7  2  0  0  0
  5  9  2  0  0  0
  6 12  2  0  0  0
 13 18  2  0  0  0
 14 19  2  0  0  0
 23 20  2  0  0  0
 23 21  2  0  0  0
M  CHG  2  16  -1  17  -1
M  END
> <rmsd>
0.518451095

$$$$
ZINC35685819


 26 28  0  0  0  0  0  0  0  0999 V2000
   -3.7652   -3.3586    0.0881 C   0  0  0  0  0
   -3.6400   -2.3252    1.0118 C   0  0  0  0  0
   -3.5223   -3.1194   -1.2648 C   0  0  0  0  0
   -3.2715   -1.0487    0.5863 C   0  0  0  0  0
    0.5792    3.0272   -0.1789 C   0  0  0  0  0
    1.8199    3.2951   -0.7574 C   0  0  0  0  0
   -2.5336   -0.3054   -3.4943 C   0  0  0  0  0
   -2.4085    0.7280   -2.5705 C   0  0  0  0  0
    1.1263    0.6755   -0.0945 C   0  0  0  0  0
   -3.1505   -1.8407   -1.7109 C   0  0  0  0  0
   -3.0233   -0.7899   -0.7715 C   0  0  0  0  0
    2.3669    0.9434   -0.6731 C   0  0  0  0  0
    0.2325    1.7175    0.1527 C   0  0  0  0  0
   -2.9021   -1.5820   -3.0688 C   0  0  0  0  0
    2.7137    2.2533   -1.0045 C   0  0  0  0  0
   -2.6514    0.4889   -1.2176 C   0  0  0  0  0
    3.2996   -0.1693   -0.9271 C   0  0  0  0  0
   -4.2860   -2.7319   -4.6238 C   0  0  0  0  0
   -1.0468    1.4417    0.7490 N   0  0  0  0  0
    3.2422   -0.7769   -2.0601 O   0  0  0  0  0
    4.1385   -0.4944   -0.0070 O   0  0  0  0  0
   -3.5947    1.8434    0.7827 O   0  0  0  0  0
   -2.2153    3.0449   -0.9358 O   0  0  0  0  0
    3.9210    2.5352   -1.5704 O   0  0  0  0  0
   -3.0106   -2.5643   -4.0114 O   0  0  0  0  0
   -2.4641    1.8586   -0.1324 S   0  0  0  0  0
  1  2  1  0  0  0
  3 10  1  0  0  0
  4 11  1  0  0  0
  5 13  1  0  0  0
  6 15  1  0  0  0
  7 14  1  0  0  0
  8 16  1  0  0  0
  9 12  1  0  0  0
 10 11  1  0  0  0
 12 17  1  0  0  0
 13 19  1  0  0  0
 14 25  1  0  0  0
 15 24  1  0  0  0
 17 20  1  0  0  0
 18 25  1  0  0  0
 26 16  1  0  0  0
 26 19  1  0  0  0
  1  3  2  0  0  0
  2  4  2  0  0  0
  5  6  2  0  0  0
  7  8  2  0  0  0
  9 13  2  0  0  0
 10 14  2  0  0  0
 11 16  2  0  0  0
 12 15  2  0  0  0
 17 21  2  0  0  0
 26 22  2  0  0  0
 26 23  2  0  0  0
M  CHG  1  20  -1
M  END
> <rmsd>
0.49564901

$$$$
ZINC35685819


 26 28  0  0  0  0  0  0  0  0999 V2000
   -3.9583   -3.3296    0.0688 C   0  0  0  0  0
   -3.6850   -2.3344    1.0024 C   0  0  0  0  0
   -3.8787   -3.0484   -1.2955 C   0  0  0  0  0
   -3.3311   -1.0542    0.5756 C   0  0  0  0  0
    0.5248    2.9362   -0.5360 C   0  0  0  0  0
    1.6915    3.1898   -1.2573 C   0  0  0  0  0
   -3.0851   -0.1843   -3.5392 C   0  0  0  0  0
   -2.8119    0.8109   -2.6055 C   0  0  0  0  0
    1.0011    0.5685   -0.5978 C   0  0  0  0  0
   -3.5240   -1.7653   -1.7431 C   0  0  0  0  0
   -3.2462   -0.7533   -0.7936 C   0  0  0  0  0
    2.1678    0.8220   -1.3191 C   0  0  0  0  0
    0.1797    1.6256   -0.2062 C   0  0  0  0  0
   -3.4390   -1.4646   -3.1123 C   0  0  0  0  0
    2.5129    2.1328   -1.6488 C   0  0  0  0  0
   -2.8915    0.5298   -1.2412 C   0  0  0  0  0
    3.0246   -0.3066   -1.7247 C   0  0  0  0  0
   -5.0432   -2.5176   -4.5170 C   0  0  0  0  0
   -1.0233    1.3647    0.5374 N   0  0  0  0  0
    2.8062   -0.8708   -2.8605 O   0  0  0  0  0
    3.9609   -0.6886   -0.9287 O   0  0  0  0  0
   -3.5326    1.8368    0.9050 O   0  0  0  0  0
   -2.3404    3.0605   -0.9337 O   0  0  0  0  0
    3.6486    2.4008   -2.3530 O   0  0  0  0  0
   -3.6965   -2.4085   -4.0651 O   0  0  0  0  0
   -2.5254    1.8533   -0.1444 S   0  0  0  0  0
  1  2  1  0  0  0
  3 10  1  0  0  0
  4 11  1  0  0  0
  5 13  1  0  0  0
  6 15  1  0  0  0
  7 14  1  0  0  0
  8 16  1  0  0  0
  9 12  1  0  0  0
 10 11  1  0  0  0
 12 17  1  0  0  0
 13 19  1  0  0  0
 14 25  1  0  0  0
 15 24  1  0  0  0
 17 20  1  0  0  0
 18 25  1  0  0  0
 26 16  1  0  0  0
 26 19  1  0  0  0
  1  3  2  0  0  0
  2  4  2  0  0  0
  5  6  2  0  0  0
  7  8  2  0  0  0
  9 13  2  0  0  0
 10 14  2  0  0  0
 11 16  2  0  0  0
 12 15  2  0  0  0
 17 21  2  0  0  0
 26 22  2  0  0  0
 26 23  2  0  0  0
M  CHG  1  20  -1
M  END
> <rmsd>
0.433885098

$$$$
ZINC35685819


 26 28  0  0  0  0  0  0  0  0999 V2000
   -2.9202   -3.1486    2.9101 C   0  0  0  0  0
   -2.7574   -1.7903    3.1659 C   0  0  0  0  0
   -3.1002   -3.5961    1.6010 C   0  0  0  0  0
   -2.7739   -0.8744    2.1137 C   0  0  0  0  0
   -0.1450    2.4519   -1.6348 C   0  0  0  0  0
    0.8180    2.4513   -2.6440 C   0  0  0  0  0
   -3.3160   -2.2051   -1.8466 C   0  0  0  0  0
   -3.1531   -0.8469   -1.5907 C   0  0  0  0  0
    0.8546    0.4708   -0.6796 C   0  0  0  0  0
   -3.1195   -2.6883    0.5296 C   0  0  0  0  0
   -2.9539   -1.3071    0.7898 C   0  0  0  0  0
    1.8175    0.4701   -1.6888 C   0  0  0  0  0
   -0.1266    1.4618   -0.6526 C   0  0  0  0  0
   -3.2994   -3.1211   -0.7943 C   0  0  0  0  0
    1.7992    1.4604   -2.6709 C   0  0  0  0  0
   -2.9732   -0.3992   -0.2816 C   0  0  0  0  0
    2.8475   -0.5842   -1.7021 C   0  0  0  0  0
   -4.7959   -4.9430   -1.1059 C   0  0  0  0  0
   -1.1197    1.4628    0.3876 N   0  0  0  0  0
    2.6091   -1.6724   -2.3465 O   0  0  0  0  0
    3.9489   -0.3799   -1.0688 O   0  0  0  0  0
   -3.5930    1.7241    1.0724 O   0  0  0  0  0
   -2.9873    1.9802   -1.3498 O   0  0  0  0  0
    2.7313    1.4767   -3.6650 O   0  0  0  0  0
   -3.4616   -4.4435   -1.0944 O   0  0  0  0  0
   -2.7744    1.3336   -0.0649 S   0  0  0  0  0
  1  2  1  0  0  0
  3 10  1  0  0  0
  4 11  1  0  0  0
  5 13  1  0  0  0
  6 15  1  0  0  0
  7 14  1  0  0  0
  8 16  1  0  0  0
  9 12  1  0  0  0
 10 11  1  0  0  0
 12 17  1  0  0  0
 13 19  1  0  0  0
 14 25  1  0  0  0
 15 24  1  0  0  0
 17 20  1  0  0  0
 18 25  1  0  0  0
 26 16  1  0  0  0
 26 19  1  0  0  0
  1  3  2  0  0  0
  2  4  2  0  0  0
  5  6  2  0  0  0
  7  8  2  0  0  0
  9 13  2  0  0  0
 10 14  2  0  0  0
 11 16  2  0  0  0
 12 15  2  0  0  0
 17 21  2  0  0  0
 26 22  2  0  0  0
 26 23  2  0  0  0
M  CHG  1  20  -1
M  END
> <rmsd>
0.534803092

$$$$
ZINC35685819


 26 28  0  0  0  0  0  0  0  0999 V2000
   -2.7832   -3.1707    2.8356 C   0  0  0  0  0
   -2.7547   -1.8095    3.1240 C   0  0  0  0  0
   -2.8088   -3.6033    1.5094 C   0  0  0  0  0
   -2.7517   -0.8757    2.0876 C   0  0  0  0  0
   -0.0781    2.7283   -1.3607 C   0  0  0  0  0
    0.9678    2.8257   -2.2784 C   0  0  0  0  0
   -2.8287   -2.1610   -1.9238 C   0  0  0  0  0
   -2.8002   -0.7998   -1.6352 C   0  0  0  0  0
    0.9900    0.8132   -0.3466 C   0  0  0  0  0
   -2.8062   -2.6773    0.4535 C   0  0  0  0  0
   -2.7773   -1.2931    0.7469 C   0  0  0  0  0
    2.0359    0.9106   -1.2643 C   0  0  0  0  0
   -0.0670    1.7221   -0.3947 C   0  0  0  0  0
   -2.8317   -3.0949   -0.8872 C   0  0  0  0  0
    2.0248    1.9170   -2.2302 C   0  0  0  0  0
   -2.7747   -0.3671   -0.3091 C   0  0  0  0  0
    3.1452   -0.0578   -1.1991 C   0  0  0  0  0
   -4.1415   -5.0231   -1.3584 C   0  0  0  0  0
   -1.1456    1.6220    0.5512 N   0  0  0  0  0
    3.0544   -1.1476   -1.8775 O   0  0  0  0  0
    4.1655    0.2201   -0.4658 O   0  0  0  0  0
   -3.6831    1.6708    1.0127 O   0  0  0  0  0
   -2.8868    2.0257   -1.3408 O   0  0  0  0  0
    3.0374    2.0286   -3.1355 O   0  0  0  0  0
   -2.8585   -4.4194   -1.2192 O   0  0  0  0  0
   -2.7374    1.3710   -0.0511 S   0  0  0  0  0
  1  2  1  0  0  0
  3 10  1  0  0  0
  4 11  1  0  0  0
  5 13  1  0  0  0
  6 15  1  0  0  0
  7 14  1  0  0  0
  8 16  1  0  0  0
  9 12  1  0  0  0
 10 11  1  0  0  0
 12 17  1  0  0  0
 13 19  1  0  0  0
 14 25  1  0  0  0
 15 24  1  0  0  0
 17 20  1  0  0  0
 18 25  1  0  0  0
 26 16  1  0  0  0
 26 19  1  0  0  0
  1  3  2  0  0  0
  2  4  2  0  0  0
  5  6  2  0  0  0
  7  8  2  0  0  0
  9 13  2  0  0  0
 10 14  2  0  0  0
 11 16  2  0  0  0
 12 15  2  0  0  0
 17 21  2  0  0  0
 26 22  2  0  0  0
 26 23  2  0  0  0
M  CHG  1  20  -1
M  END
> <rmsd>
0.720105946

$$$$
ZINC72027105


 26 28  0  0  0  0  0  0  0  0999 V2000
   -3.3908   -3.3496   -0.2223 C   0  0  0  0  0
   -3.2570   -2.3985    0.7848 C   0  0  0  0  0
    1.3995    2.4362   -2.0046 C   0  0  0  0  0
   -3.3520   -2.9594   -1.5612 C   0  0  0  0  0
   -3.0839   -1.0536    0.4571 C   0  0  0  0  0
    0.3240    2.5733   -1.1271 C   0  0  0  0  0
    2.1226    1.2439   -2.0407 C   0  0  0  0  0
   -2.9640    0.1458   -3.5798 C   0  0  0  0  0
   -2.8302    1.0968   -2.5726 C   0  0  0  0  0
    0.6946    0.3259   -0.3216 C   0  0  0  0  0
   -3.1785   -1.6099   -1.9095 C   0  0  0  0  0
   -3.0425   -0.6428   -0.8853 C   0  0  0  0  0
   -0.0284    1.5182   -0.2855 C   0  0  0  0  0
    1.7702    0.1888   -1.1992 C   0  0  0  0  0
   -3.1371   -1.1993   -3.2519 C   0  0  0  0  0
   -2.8691    0.7067   -1.2336 C   0  0  0  0  0
   -2.0993   -3.6037   -5.7225 C   0  0  0  0  0
   -2.1742   -2.1895   -5.1879 C   0  0  0  0  0
   -1.1362    1.6605    0.6205 N   0  0  0  0  0
    2.5050   -1.0255   -1.2382 N   0  0  0  0  0
    3.4675   -1.1285   -2.0366 O   0  0  0  0  0
    2.1721   -1.9626   -0.4729 O   0  0  0  0  0
   -3.6868    1.7477    0.9965 O   0  0  0  0  0
   -2.6789    3.2597   -0.7349 O   0  0  0  0  0
   -3.2634   -2.0956   -4.2745 O   0  0  0  0  0
   -2.6922    1.9832   -0.0386 S   0  0  0  0  0
  1  2  1  0  0  0
  3  7  1  0  0  0
  4 11  1  0  0  0
  5 12  1  0  0  0
  6 13  1  0  0  0
  8 15  1  0  0  0
  9 16  1  0  0  0
 10 14  1  0  0  0
 11 12  1  0  0  0
 13 19  1  0  0  0
 14 20  1  0  0  0
 15 25  1  0  0  0
 17 18  1  0  0  0
 18 25  1  0  0  0
 20 21  1  0  0  0
 26 16  1  0  0  0
 26 19  1  0  0  0
  1  4  2  0  0  0
  2  5  2  0  0  0
  3  6  2  0  0  0
  7 14  2  0  0  0
  8  9  2  0  0  0
 10 13  2  0  0  0
 11 15  2  0  0  0
 12 16  2  0  0  0
 20 22  2  0  0  0
 26 23  2  0  0  0
 26 24  2  0  0  0
M  CHG  2  20   1  21  -1
M  END
> <rmsd>
0.53649658

$$$$
ZINC72027105


 26 28  0  0  0  0  0  0  0  0999 V2000
   -3.3907   -3.3501   -0.2223 C   0  0  0  0  0
   -3.2568   -2.3990    0.7848 C   0  0  0  0  0
    1.3997    2.4357   -2.0045 C   0  0  0  0  0
   -3.3519   -2.9598   -1.5612 C   0  0  0  0  0
   -3.0837   -1.0541    0.4571 C   0  0  0  0  0
    0.3243    2.5728   -1.1270 C   0  0  0  0  0
    2.1227    1.2434   -2.0406 C   0  0  0  0  0
   -2.9638    0.1454   -3.5797 C   0  0  0  0  0
   -2.8300    1.0964   -2.5725 C   0  0  0  0  0
    0.6948    0.3254   -0.3216 C   0  0  0  0  0
   -3.1784   -1.6103   -1.9095 C   0  0  0  0  0
   -3.0424   -0.6432   -0.8853 C   0  0  0  0  0
   -0.0282    1.5177   -0.2855 C   0  0  0  0  0
    1.7703    0.1882   -1.1992 C   0  0  0  0  0
   -3.1369   -1.1997   -3.2519 C   0  0  0  0  0
   -2.8689    0.7063   -1.2336 C   0  0  0  0  0
   -5.5524   -2.6785   -4.6579 C   0  0  0  0  0
   -4.3559   -1.9043   -5.1685 C   0  0  0  0  0
   -1.1360    1.6600    0.6206 N   0  0  0  0  0
    2.5052   -1.0261   -1.2382 N   0  0  0  0  0
    3.4676   -1.1291   -2.0366 O   0  0  0  0  0
    2.1722   -1.9632   -0.4729 O   0  0  0  0  0
   -3.6865    1.7472    0.9966 O   0  0  0  0  0
   -2.6786    3.2593   -0.7347 O   0  0  0  0  0
   -3.2633   -2.0960   -4.2744 O   0  0  0  0  0
   -2.6920    1.9828   -0.0385 S   0  0  0  0  0
  1  2  1  0  0  0
  3  7  1  0  0  0
  4 11  1  0  0  0
  5 12  1  0  0  0
  6 13  1  0  0  0
  8 15  1  0  0  0
  9 16  1  0  0  0
 10 14  1  0  0  0
 11 12  1  0  0  0
 13 19  1  0  0  0
 14 20  1  0  0  0
 15 25  1  0  0  0
 17 18  1  0  0  0
 18 25  1  0  0  0
 20 21  1  0  0  0
 26 16  1  0  0  0
 26 19  1  0  0  0
  1  4  2  0  0  0
  2  5  2  0  0  0
  3  6  2  0  0  0
  7 14  2  0  0  0
  8  9  2  0  0  0
 10 13  2  0  0  0
 11 15  2  0  0  0
 12 16  2  0  0  0
 20 22  2  0  0  0
 26 23  2  0  0  0
 26 24  2  0  0  0
M  CHG  2  20   1  21  -1
M  END
> <rmsd>
0.536560416

$$$$
ZINC72027105


 26 28  0  0  0  0  0  0  0  0999 V2000
   -3.4531   -2.9813    3.0793 C   0  0  0  0  0
   -3.3372   -1.6103    3.2885 C   0  0  0  0  0
    1.6557    2.5817   -1.4647 C   0  0  0  0  0
   -3.3760   -3.4995    1.7862 C   0  0  0  0  0
   -3.1438   -0.7522    2.2056 C   0  0  0  0  0
    0.5136    2.6283   -0.6653 C   0  0  0  0  0
    2.2834    1.3613   -1.7140 C   0  0  0  0  0
   -2.9083   -2.2968   -1.7069 C   0  0  0  0  0
   -2.7924   -0.9258   -1.4976 C   0  0  0  0  0
    0.6270    0.2338   -0.3641 C   0  0  0  0  0
   -3.1817   -2.6506    0.6844 C   0  0  0  0  0
   -3.0639   -1.2564    0.8972 C   0  0  0  0  0
   -0.0007    1.4542   -0.1150 C   0  0  0  0  0
    1.7691    0.1873   -1.1636 C   0  0  0  0  0
   -3.1017   -3.1549   -0.6239 C   0  0  0  0  0
   -2.8695   -0.4074   -0.2046 C   0  0  0  0  0
   -2.0212   -6.5616   -1.0579 C   0  0  0  0  0
   -2.0975   -5.1194   -1.5114 C   0  0  0  0  0
   -1.1772    1.5027    0.7108 N   0  0  0  0  0
    2.4070   -1.0551   -1.4197 N   0  0  0  0  0
    3.4319   -1.0745   -2.1435 O   0  0  0  0  0
    1.9287   -2.0997   -0.9152 O   0  0  0  0  0
   -3.7358    1.7799    0.8867 O   0  0  0  0  0
   -2.6699    1.9114   -1.3818 O   0  0  0  0  0
   -3.2093   -4.4922   -0.8788 O   0  0  0  0  0
   -2.7126    1.3360   -0.0471 S   0  0  0  0  0
  1  2  1  0  0  0
  3  7  1  0  0  0
  4 11  1  0  0  0
  5 12  1  0  0  0
  6 13  1  0  0  0
  8 15  1  0  0  0
  9 16  1  0  0  0
 10 14  1  0  0  0
 11 12  1  0  0  0
 13 19  1  0  0  0
 14 20  1  0  0  0
 15 25  1  0  0  0
 17 18  1  0  0  0
 18 25  1  0  0  0
 20 21  1  0  0  0
 26 16  1  0  0  0
 26 19  1  0  0  0
  1  4  2  0  0  0
  2  5  2  0  0  0
  3  6  2  0  0  0
  7 14  2  0  0  0
  8  9  2  0  0  0
 10 13  2  0  0  0
 11 15  2  0  0  0
 12 16  2  0  0  0
 20 22  2  0  0  0
 26 23  2  0  0  0
 26 24  2  0  0  0
M  CHG  2  20   1  21  -1
M  END
> <rmsd>
0.569826543

$$$$
ZINC72089135


 26 28  0  0  0  0  0  0  0  0999 V2000
    1.0199    2.6225   -2.3746 C   0  0  0  0  0
    1.9308    1.5711   -2.4758 C   0  0  0  0  0
   -2.7566   -2.3161   -1.7637 C   0  0  0  0  0
   -3.4853   -2.5705    0.5257 C   0  0  0  0  0
    0.0188    2.5870   -1.4038 C   0  0  0  0  0
   -2.6198   -0.9420   -1.5675 C   0  0  0  0  0
   -3.3484   -1.1963    0.7220 C   0  0  0  0  0
    1.8408    0.4841   -1.6064 C   0  0  0  0  0
   -3.1894   -3.1304   -0.7171 C   0  0  0  0  0
    0.8398    0.4486   -0.6356 C   0  0  0  0  0
   -0.0712    1.5000   -0.5343 C   0  0  0  0  0
   -2.9157   -0.3820   -0.3247 C   0  0  0  0  0
    2.8158   -0.6145   -1.7340 C   0  0  0  0  0
   -3.9822   -7.3973   -0.1175 C   0  0  0  0  0
   -4.9302   -6.5957   -1.0043 C   0  0  0  0  0
   -2.5362   -6.9389   -0.2809 C   0  0  0  0  0
   -4.7948   -5.0935   -0.7618 C   0  0  0  0  0
   -2.3889   -5.4384   -0.0348 C   0  0  0  0  0
   -3.3388   -4.6216   -0.9300 C   0  0  0  0  0
    0.7432   -0.7179    0.2974 C   0  0  0  0  0
   -1.1116    1.4843    0.4584 N   0  0  0  0  0
    3.9104   -0.5497   -1.0608 O   0  0  0  0  0
    2.5376   -1.5990   -2.5143 O   0  0  0  0  0
   -3.6176    1.7191    1.0240 O   0  0  0  0  0
   -2.8957    2.0109   -1.3621 O   0  0  0  0  0
   -2.7423    1.3376   -0.0782 S   0  0  0  0  0
  1  2  1  0  0  0
  3  9  1  0  0  0
  4  7  1  0  0  0
  5 11  1  0  0  0
  6 12  1  0  0  0
  8 10  1  0  0  0
  8 13  1  0  0  0
 11 21  1  0  0  0
 13 22  1  0  0  0
 14 15  1  0  0  0
 14 16  1  0  0  0
 15 17  1  0  0  0
 16 18  1  0  0  0
 17 19  1  0  0  0
 18 19  1  0  0  0
 19  9  1  0  0  0
 20 10  1  0  0  0
 26 12  1  0  0  0
 26 21  1  0  0  0
  1  5  2  0  0  0
  2  8  2  0  0  0
  3  6  2  0  0  0
  4  9  2  0  0  0
  7 12  2  0  0  0
 10 11  2  0  0  0
 13 23  2  0  0  0
 26 24  2  0  0  0
 26 25  2  0  0  0
M  CHG  1  22  -1
M  END
> <rmsd>
0.568037987

$$$$
ZINC72089135


 26 28  0  0  0  0  0  0  0  0999 V2000
    0.6909    2.4729   -2.7235 C   0  0  0  0  0
    1.5332    1.3801   -2.9277 C   0  0  0  0  0
   -3.2387   -2.2848   -1.7500 C   0  0  0  0  0
   -3.7337   -2.5312    0.6018 C   0  0  0  0  0
   -0.2029    2.4741   -1.6524 C   0  0  0  0  0
   -3.0145   -0.9214   -1.5601 C   0  0  0  0  0
   -3.5094   -1.1677    0.7919 C   0  0  0  0  0
    1.4819    0.2884   -2.0610 C   0  0  0  0  0
   -3.5983   -3.0898   -0.6691 C   0  0  0  0  0
    0.5882    0.2896   -0.9900 C   0  0  0  0  0
   -0.2542    1.3824   -0.7858 C   0  0  0  0  0
   -3.1498   -0.3627   -0.2891 C   0  0  0  0  0
    2.3828   -0.8544   -2.2987 C   0  0  0  0  0
   -4.5325   -7.3204   -0.0181 C   0  0  0  0  0
   -5.5281   -6.4634   -0.7941 C   0  0  0  0  0
   -3.0910   -6.9303   -0.3304 C   0  0  0  0  0
   -5.2941   -4.9726   -0.5570 C   0  0  0  0  0
   -2.8449   -5.4417   -0.0911 C   0  0  0  0  0
   -3.8425   -4.5694   -0.8751 C   0  0  0  0  0
    0.5332   -0.8820   -0.0600 C   0  0  0  0  0
   -1.1837    1.4049    0.3114 N   0  0  0  0  0
    3.5440   -0.8504   -1.7446 O   0  0  0  0  0
    1.9758   -1.8148   -3.0518 O   0  0  0  0  0
   -3.6015    1.7535    1.1405 O   0  0  0  0  0
   -3.1216    2.0388   -1.3064 O   0  0  0  0  0
   -2.8671    1.3434   -0.0506 S   0  0  0  0  0
  1  2  1  0  0  0
  3  9  1  0  0  0
  4  7  1  0  0  0
  5 11  1  0  0  0
  6 12  1  0  0  0
  8 10  1  0  0  0
  8 13  1  0  0  0
 11 21  1  0  0  0
 13 22  1  0  0  0
 14 15  1  0  0  0
 14 16  1  0  0  0
 15 17  1  0  0  0
 16 18  1  0  0  0
 17 19  1  0  0  0
 18 19  1  0  0  0
 19  9  1  0  0  0
 20 10  1  0  0  0
 26 12  1  0  0  0
 26 21  1  0  0  0
  1  5  2  0  0  0
  2  8  2  0  0  0
  3  6  2  0  0  0
  4  9  2  0  0  0
  7 12  2  0  0  0
 10 11  2  0  0  0
 13 23  2  0  0  0
 26 24  2  0  0  0
 26 25  2  0  0  0
M  CHG  1  22  -1
M  END
> <rmsd>
0.391417891

$$$$
ZINC02455803


 26 28  0  0  0  0  0  0  0  0999 V2000
    1.3906    2.4290   -2.0163 C   0  0  0  0  0
   -3.2505   -2.4029    0.7788 C   0  0  0  0  0
   -3.0811   -1.0624    0.4633 C   0  0  0  0  0
    0.3173    2.5688   -1.1364 C   0  0  0  0  0
    2.1153    1.2377   -2.0487 C   0  0  0  0  0
   -2.9714    0.1104   -3.5576 C   0  0  0  0  0
   -2.8368    1.0758   -2.5676 C   0  0  0  0  0
    0.6935    0.3258   -0.3214 C   0  0  0  0  0
   -3.3759   -3.2938   -0.2677 C   0  0  0  0  0
   -3.0422   -0.6530   -0.8763 C   0  0  0  0  0
   -3.1793   -1.6386   -1.8761 C   0  0  0  0  0
   -0.0313    1.5171   -0.2890 C   0  0  0  0  0
    1.7667    0.1860   -1.2013 C   0  0  0  0  0
   -3.1407   -1.2314   -3.2069 C   0  0  0  0  0
   -2.8718    0.6967   -1.2288 C   0  0  0  0  0
   -2.1047   -3.6879   -5.6271 C   0  0  0  0  0
   -2.1821   -2.2623   -5.1236 C   0  0  0  0  0
   -3.3438   -2.9402   -1.5731 N   0  0  0  0  0
   -1.1377    1.6617    0.6184 N   0  0  0  0  0
    2.5041   -1.0269   -1.2356 N   0  0  0  0  0
    3.4653   -1.1318   -2.0354 O   0  0  0  0  0
    2.1748   -1.9609   -0.4649 O   0  0  0  0  0
   -3.6878    1.7457    0.9982 O   0  0  0  0  0
   -2.6858    3.2521   -0.7413 O   0  0  0  0  0
   -3.2685   -2.1515   -4.2096 O   0  0  0  0  0
   -2.6955    1.9777   -0.0403 S   0  0  0  0  0
  1  5  1  0  0  0
  2  9  1  0  0  0
  3 10  1  0  0  0
  4 12  1  0  0  0
  6 14  1  0  0  0
  7 15  1  0  0  0
  8 13  1  0  0  0
 10 11  1  0  0  0
 11 18  1  0  0  0
 12 19  1  0  0  0
 13 20  1  0  0  0
 14 25  1  0  0  0
 16 17  1  0  0  0
 17 25  1  0  0  0
 20 21  1  0  0  0
 26 15  1  0  0  0
 26 19  1  0  0  0
  1  4  2  0  0  0
  2  3  2  0  0  0
  5 13  2  0  0  0
  6  7  2  0  0  0
  8 12  2  0  0  0
  9 18  2  0  0  0
 10 15  2  0  0  0
 11 14  2  0  0  0
 20 22  2  0  0  0
 26 23  2  0  0  0
 26 24  2  0  0  0
M  CHG  2  20   1  21  -1
M  END
> <rmsd>
0.538595855

$$$$
ZINC02455803


 26 28  0  0  0  0  0  0  0  0999 V2000
    1.3911    2.4286   -2.0162 C   0  0  0  0  0
   -3.2499   -2.4033    0.7789 C   0  0  0  0  0
   -3.0805   -1.0629    0.4634 C   0  0  0  0  0
    0.3178    2.5683   -1.1364 C   0  0  0  0  0
    2.1158    1.2372   -2.0486 C   0  0  0  0  0
   -2.9708    0.1099   -3.5575 C   0  0  0  0  0
   -2.8362    1.0753   -2.5676 C   0  0  0  0  0
    0.6940    0.3253   -0.3214 C   0  0  0  0  0
   -3.3753   -3.2943   -0.2676 C   0  0  0  0  0
   -3.0416   -0.6535   -0.8763 C   0  0  0  0  0
   -3.1787   -1.6391   -1.8761 C   0  0  0  0  0
   -0.0308    1.5166   -0.2890 C   0  0  0  0  0
    1.7673    0.1855   -1.2013 C   0  0  0  0  0
   -3.1401   -1.2318   -3.2068 C   0  0  0  0  0
   -2.8713    0.6962   -1.2287 C   0  0  0  0  0
   -5.5570   -2.7470   -4.5709 C   0  0  0  0  0
   -4.3639   -1.9820   -5.1029 C   0  0  0  0  0
   -3.3433   -2.9407   -1.5730 N   0  0  0  0  0
   -1.1371    1.6612    0.6184 N   0  0  0  0  0
    2.5047   -1.0273   -1.2355 N   0  0  0  0  0
    3.4659   -1.1323   -2.0353 O   0  0  0  0  0
    2.1754   -1.9613   -0.4648 O   0  0  0  0  0
   -3.6872    1.7452    0.9983 O   0  0  0  0  0
   -2.6852    3.2516   -0.7412 O   0  0  0  0  0
   -3.2679   -2.1520   -4.2095 O   0  0  0  0  0
   -2.6950    1.9773   -0.0403 S   0  0  0  0  0
  1  5  1  0  0  0
  2  9  1  0  0  0
  3 10  1  0  0  0
  4 12  1  0  0  0
  6 14  1  0  0  0
  7 15  1  0  0  0
  8 13  1  0  0  0
 10 11  1  0  0  0
 11 18  1  0  0  0
 12 19  1  0  0  0
 13 20  1  0  0  0
 14 25  1  0  0  0
 16 17  1  0  0  0
 17 25  1  0  0  0
 20 21  1  0  0  0
 26 15  1  0  0  0
 26 19  1  0  0  0
  1  4  2  0  0  0
  2  3  2  0  0  0
  5 13  2  0  0  0
  6  7  2  0  0  0
  8 12  2  0  0  0
  9 18  2  0  0  0
 10 15  2  0  0  0
 11 14  2  0  0  0
 20 22  2  0  0  0
 26 23  2  0  0  0
 26 24  2  0  0  0
M  CHG  2  20   1  21  -1
M  END
> <rmsd>
0.538595855

$$$$
ZINC02455803


 26 28  0  0  0  0  0  0  0  0999 V2000
    1.6581    2.5829   -1.4592 C   0  0  0  0  0
   -3.3420   -1.6351    3.2594 C   0  0  0  0  0
   -3.1477   -0.7656    2.1959 C   0  0  0  0  0
    0.5159    2.6284   -0.6597 C   0  0  0  0  0
    2.2847    1.3625   -1.7115 C   0  0  0  0  0
   -2.9095   -2.2934   -1.6982 C   0  0  0  0  0
   -2.7915   -0.9232   -1.5010 C   0  0  0  0  0
    0.6272    0.2330   -0.3647 C   0  0  0  0  0
   -3.4483   -2.9808    2.9721 C   0  0  0  0  0
   -3.0657   -1.2598    0.8871 C   0  0  0  0  0
   -3.1862   -2.6520    0.6943 C   0  0  0  0  0
    0.0005    1.4534   -0.1125 C   0  0  0  0  0
    1.7692    0.1876   -1.1642 C   0  0  0  0  0
   -3.1048   -3.1425   -0.6061 C   0  0  0  0  0
   -2.8692   -0.4055   -0.2113 C   0  0  0  0  0
   -2.0301   -6.5577   -0.9889 C   0  0  0  0  0
   -2.1046   -5.1222   -1.4638 C   0  0  0  0  0
   -3.3749   -3.4984    1.7244 N   0  0  0  0  0
   -1.1768    1.5007    0.7121 N   0  0  0  0  0
    2.4070   -1.0544   -1.4222 N   0  0  0  0  0
    3.4327   -1.0728   -2.1450 O   0  0  0  0  0
    1.9279   -2.1000   -0.9204 O   0  0  0  0  0
   -3.7355    1.7792    0.8852 O   0  0  0  0  0
   -2.6664    1.9166   -1.3814 O   0  0  0  0  0
   -3.2151   -4.4846   -0.8409 O   0  0  0  0  0
   -2.7114    1.3361   -0.0486 S   0  0  0  0  0
  1  5  1  0  0  0
  2  9  1  0  0  0
  3 10  1  0  0  0
  4 12  1  0  0  0
  6 14  1  0  0  0
  7 15  1  0  0  0
  8 13  1  0  0  0
 10 11  1  0  0  0
 11 18  1  0  0  0
 12 19  1  0  0  0
 13 20  1  0  0  0
 14 25  1  0  0  0
 16 17  1  0  0  0
 17 25  1  0  0  0
 20 21  1  0  0  0
 26 15  1  0  0  0
 26 19  1  0  0  0
  1  4  2  0  0  0
  2  3  2  0  0  0
  5 13  2  0  0  0
  6  7  2  0  0  0
  8 12  2  0  0  0
  9 18  2  0  0  0
 10 15  2  0  0  0
 11 14  2  0  0  0
 20 22  2  0  0  0
 26 23  2  0  0  0
 26 24  2  0  0  0
M  CHG  2  20   1  21  -1
M  END
> <rmsd>
0.568151593

$$$$
ZINC78420080


 27 29  0  0  0  0  0  0  0  0999 V2000
    2.7130    2.3899    0.9207 C   0  0  0  0  0
    3.9893    1.8321    0.9927 C   0  0  0  0  0
   -3.5346   -1.4006    1.0769 C   0  0  0  0  0
   -2.7418   -0.3813   -0.9651 C   0  0  0  0  0
   -3.5694   -2.6427    0.4434 C   0  0  0  0  0
   -2.7766   -1.6235   -1.5986 C   0  0  0  0  0
    1.9972    0.5691   -0.4969 C   0  0  0  0  0
   -3.1208   -0.2698    0.3726 C   0  0  0  0  0
    1.7168    1.7584    0.1759 C   0  0  0  0  0
    4.2697    0.6429    0.3199 C   0  0  0  0  0
    3.2736    0.0113   -0.4249 C   0  0  0  0  0
   -3.1904   -2.7543   -0.8944 C   0  0  0  0  0
   -4.5752    2.3746   -0.3242 C   0  0  0  0  0
   -4.5234    2.7432    2.0549 C   0  0  0  0  0
   -5.9347    3.0662   -0.3731 C   0  0  0  0  0
   -5.8846    3.4250    1.9501 C   0  0  0  0  0
    5.6480    0.0725    0.4168 C   0  0  0  0  0
    0.3427    2.3584    0.0990 C   0  0  0  0  0
   -1.9987    2.0194    0.5042 C   0  0  0  0  0
   -3.0819    1.0830    1.0622 C   0  0  0  0  0
   -4.3841    1.7419    0.9884 N   0  0  0  0  0
   -0.6814    1.4488    0.6123 N   0  0  0  0  0
    3.5375   -1.2016   -1.1191 N   0  0  0  0  0
    3.9500   -1.1452   -2.3018 O   0  0  0  0  0
    3.3499   -2.2911   -0.5280 O   0  0  0  0  0
   -6.0365    4.0374    0.6690 O   0  0  0  0  0
   -3.2212   -3.9476   -1.5021 F   0  0  0  0  0
  1  9  1  0  0  0
  2 10  1  0  0  0
  3  8  1  0  0  0
  4  6  1  0  0  0
  5 12  1  0  0  0
  7 11  1  0  0  0
 11 23  1  0  0  0
 12 27  1  0  0  0
 13 15  1  0  0  0
 13 21  1  0  0  0
 14 16  1  0  0  0
 14 21  1  0  0  0
 15 26  1  0  0  0
 16 26  1  0  0  0
 17 10  1  0  0  0
 18  9  1  0  0  0
 18 22  1  0  0  0
 19 20  1  0  0  0
 19 22  1  0  0  0
 20  8  1  0  0  0
 20 21  1  0  0  0
 23 24  1  0  0  0
  1  2  2  0  0  0
  3  5  2  0  0  0
  4  8  2  0  0  0
  6 12  2  0  0  0
  7  9  2  0  0  0
 10 11  2  0  0  0
 23 25  2  0  0  0
M  CHG  2  23   1  24  -1
M  END
> <rmsd>
0.498733282

$$$$
ZINC04293486


 25 27  0  0  0  0  0  0  0  0999 V2000
   -6.3079    4.4812   -0.2290 C   0  0  0  0  0
    0.7416    0.0192    0.1458 C   0  0  0  0  0
    0.3589    1.8078   -1.4328 C   0  0  0  0  0
    1.8696   -0.3747   -0.5739 C   0  0  0  0  0
    1.4869    1.4140   -2.1525 C   0  0  0  0  0
   -3.5619    0.0639   -0.9705 C   0  0  0  0  0
   -3.6307   -0.9589    1.2173 C   0  0  0  0  0
   -3.4376   -1.1960   -1.5557 C   0  0  0  0  0
   -3.5066   -2.2189    0.6320 C   0  0  0  0  0
   -5.5850    3.3652    0.2826 C   0  0  0  0  0
   -5.4947    5.3513   -0.9212 C   0  0  0  0  0
   -0.0138    1.1104   -0.2837 C   0  0  0  0  0
    2.2423    0.3227   -1.7231 C   0  0  0  0  0
   -3.6583    0.1826    0.4161 C   0  0  0  0  0
   -3.4100   -2.3375   -0.7544 C   0  0  0  0  0
   -4.2465    3.4246   -0.0383 C   0  0  0  0  0
   -3.1774    2.4788    0.2972 C   0  0  0  0  0
   -1.9166    2.5217    0.0027 N   0  0  0  0  0
   -1.1546    1.5086    0.4439 N   0  0  0  0  0
    3.3907   -0.0780   -2.4556 N   0  0  0  0  0
    4.0567   -1.0621   -2.0522 O   0  0  0  0  0
    3.7085    0.5627   -3.4867 O   0  0  0  0  0
   -3.7841    1.4476    1.0036 O   0  0  0  0  0
   -3.8664    4.8217   -0.9525 S   0  0  0  0  0
   -3.2579   -3.8922   -1.4764 Cl  0  0  0  0  0
  1 10  1  0  0  0
  2 12  1  0  0  0
  3  5  1  0  0  0
  4 13  1  0  0  0
  6 14  1  0  0  0
  7  9  1  0  0  0
  8 15  1  0  0  0
 11 24  1  0  0  0
 12 19  1  0  0  0
 13 20  1  0  0  0
 14 23  1  0  0  0
 15 25  1  0  0  0
 16 17  1  0  0  0
 16 24  1  0  0  0
 17 23  1  0  0  0
 19 18  1  0  0  0
 20 21  1  0  0  0
  1 11  2  0  0  0
  2  4  2  0  0  0
  3 12  2  0  0  0
  5 13  2  0  0  0
  6  8  2  0  0  0
  7 14  2  0  0  0
  9 15  2  0  0  0
 10 16  2  0  0  0
 17 18  2  0  0  0
 20 22  2  0  0  0
M  CHG  2  20   1  21  -1
M  END
> <rmsd>
0.456784546

$$$$
ZINC04293486


 25 27  0  0  0  0  0  0  0  0999 V2000
   -5.5527    5.0244   -1.1038 C   0  0  0  0  0
    0.7414    0.0188    0.1460 C   0  0  0  0  0
    0.3587    1.8074   -1.4325 C   0  0  0  0  0
    1.8694   -0.3751   -0.5737 C   0  0  0  0  0
    1.4868    1.4136   -2.1522 C   0  0  0  0  0
   -3.5621    0.0636   -0.9703 C   0  0  0  0  0
   -3.6309   -0.9594    1.2174 C   0  0  0  0  0
   -3.4378   -1.1964   -1.5556 C   0  0  0  0  0
   -3.5068   -2.2193    0.6321 C   0  0  0  0  0
   -4.3601    4.2456   -1.1383 C   0  0  0  0  0
   -6.3055    4.7686    0.0211 C   0  0  0  0  0
   -0.0140    1.1100   -0.2834 C   0  0  0  0  0
    2.2421    0.3224   -1.7228 C   0  0  0  0  0
   -3.6585    0.1822    0.4162 C   0  0  0  0  0
   -3.4102   -2.3379   -0.7544 C   0  0  0  0  0
   -4.2467    3.4241   -0.0381 C   0  0  0  0  0
   -3.1776    2.4783    0.2974 C   0  0  0  0  0
   -1.9169    2.5213    0.0029 N   0  0  0  0  0
   -1.1548    1.5082    0.4441 N   0  0  0  0  0
    3.3906   -0.0783   -2.4553 N   0  0  0  0  0
    4.0565   -1.0624   -2.0519 O   0  0  0  0  0
    3.7084    0.5624   -3.4864 O   0  0  0  0  0
   -3.7844    1.4471    1.0037 O   0  0  0  0  0
   -5.5746    3.5937    1.0298 S   0  0  0  0  0
   -3.2581   -3.8926   -1.4764 Cl  0  0  0  0  0
  1 10  1  0  0  0
  2 12  1  0  0  0
  3  5  1  0  0  0
  4 13  1  0  0  0
  6 14  1  0  0  0
  7  9  1  0  0  0
  8 15  1  0  0  0
 11 24  1  0  0  0
 12 19  1  0  0  0
 13 20  1  0  0  0
 14 23  1  0  0  0
 15 25  1  0  0  0
 16 17  1  0  0  0
 16 24  1  0  0  0
 17 23  1  0  0  0
 19 18  1  0  0  0
 20 21  1  0  0  0
  1 11  2  0  0  0
  2  4  2  0  0  0
  3 12  2  0  0  0
  5 13  2  0  0  0
  6  8  2  0  0  0
  7 14  2  0  0  0
  9 15  2  0  0  0
 10 16  2  0  0  0
 17 18  2  0  0  0
 20 22  2  0  0  0
M  CHG  2  20   1  21  -1
M  END
> <rmsd>
0.456659555

$$$$
ZINC04293486


 25 27  0  0  0  0  0  0  0  0999 V2000
   -6.4448    4.0318   -0.4365 C   0  0  0  0  0
    0.9962    0.2660    0.2058 C   0  0  0  0  0
    0.3505    1.6564   -1.6615 C   0  0  0  0  0
    2.1385   -0.1344   -0.4872 C   0  0  0  0  0
    1.4929    1.2562   -2.3546 C   0  0  0  0  0
   -3.0483   -0.9260    0.3600 C   0  0  0  0  0
   -5.3076   -0.1283    0.0497 C   0  0  0  0  0
   -3.4080   -2.1577   -0.1867 C   0  0  0  0  0
   -5.6673   -1.3600   -0.4971 C   0  0  0  0  0
   -5.5154    3.2937    0.3519 C   0  0  0  0  0
   -5.9703    4.2706   -1.7074 C   0  0  0  0  0
    0.1021    1.1614   -0.3813 C   0  0  0  0  0
    2.3869    0.3608   -1.7674 C   0  0  0  0  0
   -3.9980    0.0887    0.4783 C   0  0  0  0  0
   -4.7176   -2.3747   -0.6154 C   0  0  0  0  0
   -4.3658    2.9964   -0.3467 C   0  0  0  0  0
   -3.1810    2.2589    0.1031 C   0  0  0  0  0
   -1.9449    2.3823   -0.2642 N   0  0  0  0  0
   -1.0532    1.5660    0.3193 N   0  0  0  0  0
    3.5499   -0.0465   -2.4728 N   0  0  0  0  0
    4.3416   -0.8525   -1.9266 O   0  0  0  0  0
    3.7545    0.4105   -3.6235 O   0  0  0  0  0
   -3.6365    1.3258    1.0263 O   0  0  0  0  0
   -4.4102    3.6062   -1.9462 S   0  0  0  0  0
   -5.1614   -3.8939   -1.2910 Cl  0  0  0  0  0
  1 10  1  0  0  0
  2 12  1  0  0  0
  3  5  1  0  0  0
  4 13  1  0  0  0
  6 14  1  0  0  0
  7  9  1  0  0  0
  8 15  1  0  0  0
 11 24  1  0  0  0
 12 19  1  0  0  0
 13 20  1  0  0  0
 14 23  1  0  0  0
 15 25  1  0  0  0
 16 17  1  0  0  0
 16 24  1  0  0  0
 17 23  1  0  0  0
 19 18  1  0  0  0
 20 21  1  0  0  0
  1 11  2  0  0  0
  2  4  2  0  0  0
  3 12  2  0  0  0
  5 13  2  0  0  0
  6  8  2  0  0  0
  7 14  2  0  0  0
  9 15  2  0  0  0
 10 16  2  0  0  0
 17 18  2  0  0  0
 20 22  2  0  0  0
M  CHG  2  20   1  21  -1
M  END
> <rmsd>
0.64694196

$$$$
ZINC13464142


 26 28  0  0  0  0  0  0  0  0999 V2000
   -2.4243   -2.2353   -1.8179 C   0  0  0  0  0
   -3.2427   -2.5888    0.4276 C   0  0  0  0  0
   -0.0659    2.7377   -1.3407 C   0  0  0  0  0
    0.9836    2.8424   -2.2534 C   0  0  0  0  0
   -2.3877   -0.8600   -1.5880 C   0  0  0  0  0
   -3.2059   -1.2136    0.6576 C   0  0  0  0  0
    0.9946    0.8103   -0.3421 C   0  0  0  0  0
    2.0441    0.9150   -1.2548 C   0  0  0  0  0
   -2.8519   -3.0998   -0.8101 C   0  0  0  0  0
   -0.0605    1.7218   -0.3850 C   0  0  0  0  0
    2.0387    1.9310   -2.2105 C   0  0  0  0  0
   -2.7784   -0.3492   -0.3503 C   0  0  0  0  0
    3.1513   -0.0562   -1.1951 C   0  0  0  0  0
   -3.3931   -7.4213   -0.3357 C   0  0  0  0  0
   -4.3486   -6.6616   -1.2508 C   0  0  0  0  0
   -1.9739   -6.8678   -0.4199 C   0  0  0  0  0
   -4.3225   -5.1599   -0.9717 C   0  0  0  0  0
   -1.9360   -5.3671   -0.1367 C   0  0  0  0  0
   -2.8940   -4.5920   -1.0600 C   0  0  0  0  0
   -1.1429    1.6142    0.5558 N   0  0  0  0  0
    3.0609   -1.1390   -1.8849 O   0  0  0  0  0
    4.1694    0.2122   -0.4553 O   0  0  0  0  0
   -3.6826    1.6692    1.0041 O   0  0  0  0  0
   -2.8710    2.0631   -1.3380 O   0  0  0  0  0
    3.0550    2.0498   -3.1107 O   0  0  0  0  0
   -2.7330    1.3722   -0.0618 S   0  0  0  0  0
  1  5  1  0  0  0
  2  9  1  0  0  0
  3 10  1  0  0  0
  4 11  1  0  0  0
  6 12  1  0  0  0
  7  8  1  0  0  0
  8 13  1  0  0  0
 10 20  1  0  0  0
 11 25  1  0  0  0
 13 21  1  0  0  0
 14 15  1  0  0  0
 14 16  1  0  0  0
 15 17  1  0  0  0
 16 18  1  0  0  0
 17 19  1  0  0  0
 18 19  1  0  0  0
 19  9  1  0  0  0
 26 12  1  0  0  0
 26 20  1  0  0  0
  1  9  2  0  0  0
  2  6  2  0  0  0
  3  4  2  0  0  0
  5 12  2  0  0  0
  7 10  2  0  0  0
  8 11  2  0  0  0
 13 22  2  0  0  0
 26 23  2  0  0  0
 26 24  2  0  0  0
M  CHG  1  21  -1
M  END
> <rmsd>
0.708189964

$$$$
ZINC13464142


 26 28  0  0  0  0  0  0  0  0999 V2000
   -2.9100   -2.3083   -1.7789 C   0  0  0  0  0
   -3.5450   -2.5656    0.5379 C   0  0  0  0  0
   -0.1329    2.4647   -1.6173 C   0  0  0  0  0
    0.8338    2.4728   -2.6227 C   0  0  0  0  0
   -2.7441   -0.9376   -1.5812 C   0  0  0  0  0
   -3.3790   -1.1949    0.7357 C   0  0  0  0  0
    0.8591    0.4715   -0.6792 C   0  0  0  0  0
    1.8258    0.4795   -1.6847 C   0  0  0  0  0
   -3.3105   -3.1224   -0.7193 C   0  0  0  0  0
   -0.1203    1.4642   -0.6454 C   0  0  0  0  0
    1.8132    1.4801   -2.6565 C   0  0  0  0  0
   -2.9785   -0.3809   -0.3240 C   0  0  0  0  0
    2.8536   -0.5767   -1.7053 C   0  0  0  0  0
   -4.1452   -7.3799   -0.1104 C   0  0  0  0  0
   -5.1175   -6.5578   -0.9510 C   0  0  0  0  0
   -2.7004   -6.9434   -0.3333 C   0  0  0  0  0
   -4.9476   -5.0596   -0.7060 C   0  0  0  0  0
   -2.5186   -5.4471   -0.0852 C   0  0  0  0  0
   -3.4928   -4.6096   -0.9340 C   0  0  0  0  0
   -1.1173    1.4563    0.3910 N   0  0  0  0  0
    2.6155   -1.6576   -2.3620 O   0  0  0  0  0
    3.9531   -0.3813   -1.0657 O   0  0  0  0  0
   -3.5931    1.7212    1.0651 O   0  0  0  0  0
   -2.9705    2.0179   -1.3482 O   0  0  0  0  0
    2.7491    1.5050   -3.6468 O   0  0  0  0  0
   -2.7713    1.3349   -0.0758 S   0  0  0  0  0
  1  5  1  0  0  0
  2  9  1  0  0  0
  3 10  1  0  0  0
  4 11  1  0  0  0
  6 12  1  0  0  0
  7  8  1  0  0  0
  8 13  1  0  0  0
 10 20  1  0  0  0
 11 25  1  0  0  0
 13 21  1  0  0  0
 14 15  1  0  0  0
 14 16  1  0  0  0
 15 17  1  0  0  0
 16 18  1  0  0  0
 17 19  1  0  0  0
 18 19  1  0  0  0
 19  9  1  0  0  0
 26 12  1  0  0  0
 26 20  1  0  0  0
  1  9  2  0  0  0
  2  6  2  0  0  0
  3  4  2  0  0  0
  5 12  2  0  0  0
  7 10  2  0  0  0
  8 11  2  0  0  0
 13 22  2  0  0  0
 26 23  2  0  0  0
 26 24  2  0  0  0
M  CHG  1  21  -1
M  END
> <rmsd>
0.524956226

$$$$
ZINC35397466


 26 28  0  0  0  0  0  0  0  0999 V2000
    0.8678    0.4575   -0.6601 C   0  0  0  0  0
   -3.3306   -3.1261   -0.6930 C   0  0  0  0  0
   -3.3973   -1.1887    0.7488 C   0  0  0  0  0
   -2.7442   -0.9508   -1.5651 C   0  0  0  0  0
   -0.0610    2.4528   -1.5616 C   0  0  0  0  0
    1.8373    0.4949   -1.6561 C   0  0  0  0  0
   -3.5705   -2.5598    0.5589 C   0  0  0  0  0
   -2.9174   -2.3216   -1.7549 C   0  0  0  0  0
   -0.1030    1.4514   -0.6051 C   0  0  0  0  0
   -2.9841   -0.3842   -0.3131 C   0  0  0  0  0
    1.7923    1.5391   -2.5659 C   0  0  0  0  0
    2.8646   -0.5591   -1.7124 C   0  0  0  0  0
    4.0516    1.0162   -5.4873 C   0  0  0  0  0
    4.6095    2.2928   -4.8913 C   0  0  0  0  0
    2.6467    0.9558   -4.8986 C   0  0  0  0  0
    4.0667    2.2644   -3.4671 C   0  0  0  0  0
   -4.0121   -3.4199    1.6943 C   0  0  0  0  0
   -2.6607   -2.9275   -3.0933 C   0  0  0  0  0
    0.8649    2.5225   -2.5442 N   0  0  0  0  0
    2.7708    1.5835   -3.5772 N   0  0  0  0  0
   -1.1097    1.4401    0.4036 N   0  0  0  0  0
    2.6288   -1.6164   -2.4079 O   0  0  0  0  0
    3.9633   -0.3874   -1.0638 O   0  0  0  0  0
   -3.6011    1.7331    1.0514 O   0  0  0  0  0
   -2.9453    2.0063   -1.3558 O   0  0  0  0  0
   -2.7645    1.3554   -0.0724 S   0  0  0  0  0
  1  9  1  0  0  0
  2  8  1  0  0  0
  3  7  1  0  0  0
  4 10  1  0  0  0
  5 19  1  0  0  0
  6 11  1  0  0  0
  6 12  1  0  0  0
  9 21  1  0  0  0
 11 20  1  0  0  0
 12 22  1  0  0  0
 13 14  1  0  0  0
 13 15  1  0  0  0
 14 16  1  0  0  0
 15 20  1  0  0  0
 16 20  1  0  0  0
 17  7  1  0  0  0
 18  8  1  0  0  0
 26 10  1  0  0  0
 26 21  1  0  0  0
  1  6  2  0  0  0
  2  7  2  0  0  0
  3 10  2  0  0  0
  4  8  2  0  0  0
  5  9  2  0  0  0
 11 19  2  0  0  0
 12 23  2  0  0  0
 26 24  2  0  0  0
 26 25  2  0  0  0
M  CHG  1  22  -1
M  END
> <rmsd>
0.509901047

$$$$
ZINC35397466


 26 28  0  0  0  0  0  0  0  0999 V2000
    1.0041    0.7851   -0.3099 C   0  0  0  0  0
   -2.8811   -3.1081   -0.7767 C   0  0  0  0  0
   -3.2326   -1.2076    0.6728 C   0  0  0  0  0
   -2.3871   -0.8790   -1.5664 C   0  0  0  0  0
    0.0108    2.7193   -1.2738 C   0  0  0  0  0
    2.0564    0.9144   -1.2096 C   0  0  0  0  0
   -3.2800   -2.5842    0.4529 C   0  0  0  0  0
   -2.4346   -2.2555   -1.7864 C   0  0  0  0  0
   -0.0421    1.7006   -0.3361 C   0  0  0  0  0
   -2.7861   -0.3550   -0.3368 C   0  0  0  0  0
    2.0152    1.9682   -2.1084 C   0  0  0  0  0
    3.1634   -0.0567   -1.1799 C   0  0  0  0  0
    4.5708    1.6720   -4.8091 C   0  0  0  0  0
    4.9696    2.9767   -4.1497 C   0  0  0  0  0
    3.1261    1.4938   -4.3562 C   0  0  0  0  0
    4.3003    2.8814   -2.7833 C   0  0  0  0  0
   -3.7572   -3.4959    1.5324 C   0  0  0  0  0
   -2.0079   -2.8159   -3.1009 C   0  0  0  0  0
    1.0161    2.8772   -2.1638 N   0  0  0  0  0
    3.0773    2.1054   -3.0224 N   0  0  0  0  0
   -1.1344    1.5944    0.5729 N   0  0  0  0  0
    3.0765   -1.1163   -1.9058 O   0  0  0  0  0
    4.1801    0.1869   -0.4288 O   0  0  0  0  0
   -3.6906    1.6842    0.9859 O   0  0  0  0  0
   -2.8365    2.0498   -1.3456 O   0  0  0  0  0
   -2.7260    1.3918   -0.0580 S   0  0  0  0  0
  1  9  1  0  0  0
  2  8  1  0  0  0
  3  7  1  0  0  0
  4 10  1  0  0  0
  5 19  1  0  0  0
  6 11  1  0  0  0
  6 12  1  0  0  0
  9 21  1  0  0  0
 11 20  1  0  0  0
 12 22  1  0  0  0
 13 14  1  0  0  0
 13 15  1  0  0  0
 14 16  1  0  0  0
 15 20  1  0  0  0
 16 20  1  0  0  0
 17  7  1  0  0  0
 18  8  1  0  0  0
 26 10  1  0  0  0
 26 21  1  0  0  0
  1  6  2  0  0  0
  2  7  2  0  0  0
  3 10  2  0  0  0
  4  8  2  0  0  0
  5  9  2  0  0  0
 11 19  2  0  0  0
 12 23  2  0  0  0
 26 24  2  0  0  0
 26 25  2  0  0  0
M  CHG  1  22  -1
M  END
> <rmsd>
0.688715696

$$$$
ZINC35397461


 26 28  0  0  0  0  0  0  0  0999 V2000
   -3.2794   -2.5852    0.4529 C   0  0  0  0  0
   -2.4336   -2.2559   -1.7861 C   0  0  0  0  0
   -3.2325   -1.2087    0.6731 C   0  0  0  0  0
   -2.3867   -0.8793   -1.5659 C   0  0  0  0  0
    1.0041    0.7843   -0.3097 C   0  0  0  0  0
    0.0108    2.7184   -1.2736 C   0  0  0  0  0
    2.0563    0.9135   -1.2094 C   0  0  0  0  0
   -2.8799   -3.1089   -0.7768 C   0  0  0  0  0
   -0.0421    1.6998   -0.3359 C   0  0  0  0  0
   -2.7861   -0.3557   -0.3362 C   0  0  0  0  0
    2.0151    1.9672   -2.1083 C   0  0  0  0  0
    3.1633   -0.0577   -1.1797 C   0  0  0  0  0
    4.5705    1.6707   -4.8091 C   0  0  0  0  0
    4.9694    2.9755   -4.1497 C   0  0  0  0  0
    3.1259    1.4926   -4.3561 C   0  0  0  0  0
    4.3002    2.8803   -2.7834 C   0  0  0  0  0
   -1.6255   -5.2741   -0.6207 C   0  0  0  0  0
   -2.9280   -4.5806   -1.0118 C   0  0  0  0  0
    1.0160    2.8762   -2.1637 N   0  0  0  0  0
    3.0771    2.1043   -3.0223 N   0  0  0  0  0
   -1.1344    1.5936    0.5732 N   0  0  0  0  0
    3.0763   -1.1174   -1.9055 O   0  0  0  0  0
    4.1800    0.1860   -0.4287 O   0  0  0  0  0
   -3.6906    1.6836    0.9863 O   0  0  0  0  0
   -2.8366    2.0489   -1.3453 O   0  0  0  0  0
   -2.7261    1.3911   -0.0576 S   0  0  0  0  0
  1  8  1  0  0  0
  2  4  1  0  0  0
  3 10  1  0  0  0
  5  9  1  0  0  0
  6 19  1  0  0  0
  7 11  1  0  0  0
  7 12  1  0  0  0
  9 21  1  0  0  0
 11 20  1  0  0  0
 12 22  1  0  0  0
 13 14  1  0  0  0
 13 15  1  0  0  0
 14 16  1  0  0  0
 15 20  1  0  0  0
 16 20  1  0  0  0
 17 18  1  0  0  0
 18  8  1  0  0  0
 26 10  1  0  0  0
 26 21  1  0  0  0
  1  3  2  0  0  0
  2  8  2  0  0  0
  4 10  2  0  0  0
  5  7  2  0  0  0
  6  9  2  0  0  0
 11 19  2  0  0  0
 12 23  2  0  0  0
 26 24  2  0  0  0
 26 25  2  0  0  0
M  CHG  1  22  -1
M  END
> <rmsd>
0.689229727

$$$$
ZINC35397461


 26 28  0  0  0  0  0  0  0  0999 V2000
   -3.5700   -2.5608    0.5589 C   0  0  0  0  0
   -2.9164   -2.3221   -1.7547 C   0  0  0  0  0
   -3.3973   -1.1898    0.7491 C   0  0  0  0  0
   -2.7438   -0.9512   -1.5645 C   0  0  0  0  0
    0.8677    0.4567   -0.6598 C   0  0  0  0  0
   -0.0611    2.4519   -1.5615 C   0  0  0  0  0
    1.8372    0.4939   -1.6559 C   0  0  0  0  0
   -3.3295   -3.1270   -0.6931 C   0  0  0  0  0
   -0.1031    1.4505   -0.6048 C   0  0  0  0  0
   -2.9842   -0.3850   -0.3126 C   0  0  0  0  0
    1.7921    1.5380   -2.5657 C   0  0  0  0  0
    2.8644   -0.5601   -1.7121 C   0  0  0  0  0
    4.0512    1.0148   -5.4872 C   0  0  0  0  0
    4.6092    2.2915   -4.8914 C   0  0  0  0  0
    2.6464    0.9546   -4.8984 C   0  0  0  0  0
    4.0665    2.2632   -3.4671 C   0  0  0  0  0
   -2.2353   -5.3815   -0.6159 C   0  0  0  0  0
   -3.5120   -4.5930   -0.8962 C   0  0  0  0  0
    0.8648    2.5215   -2.5440 N   0  0  0  0  0
    2.7706    1.5823   -3.5771 N   0  0  0  0  0
   -1.1097    1.4394    0.4039 N   0  0  0  0  0
    2.6286   -1.6174   -2.4075 O   0  0  0  0  0
    3.9632   -0.3884   -1.0636 O   0  0  0  0  0
   -3.6011    1.7325    1.0518 O   0  0  0  0  0
   -2.9454    2.0054   -1.3554 O   0  0  0  0  0
   -2.7646    1.3547   -0.0720 S   0  0  0  0  0
  1  8  1  0  0  0
  2  4  1  0  0  0
  3 10  1  0  0  0
  5  9  1  0  0  0
  6 19  1  0  0  0
  7 11  1  0  0  0
  7 12  1  0  0  0
  9 21  1  0  0  0
 11 20  1  0  0  0
 12 22  1  0  0  0
 13 14  1  0  0  0
 13 15  1  0  0  0
 14 16  1  0  0  0
 15 20  1  0  0  0
 16 20  1  0  0  0
 17 18  1  0  0  0
 18  8  1  0  0  0
 26 10  1  0  0  0
 26 21  1  0  0  0
  1  3  2  0  0  0
  2  8  2  0  0  0
  4 10  2  0  0  0
  5  7  2  0  0  0
  6  9  2  0  0  0
 11 19  2  0  0  0
 12 23  2  0  0  0
 26 24  2  0  0  0
 26 25  2  0  0  0
M  CHG  1  22  -1
M  END
> <rmsd>
0.510246336

$$$$
ZINC64843332


 26 28  0  0  0  0  0  0  0  0999 V2000
   -2.9522   -2.2119   -1.8675 C   0  0  0  0  0
   -2.9057   -0.8385   -1.6279 C   0  0  0  0  0
    1.0026    0.7865   -0.3134 C   0  0  0  0  0
   -2.7578   -2.6320    0.5038 C   0  0  0  0  0
    0.0025    2.7124   -1.2867 C   0  0  0  0  0
    2.0521    0.9124   -1.2167 C   0  0  0  0  0
   -2.8783   -3.1086   -0.8015 C   0  0  0  0  0
   -2.7113   -1.2586    0.7433 C   0  0  0  0  0
   -0.0456    1.6996   -0.3425 C   0  0  0  0  0
   -2.7851   -0.3619   -0.3226 C   0  0  0  0  0
    2.0062    1.9603   -2.1220 C   0  0  0  0  0
    3.1613   -0.0562   -1.1840 C   0  0  0  0  0
    5.1550    2.6871   -3.9845 C   0  0  0  0  0
    4.3527    1.9272   -5.0212 C   0  0  0  0  0
    4.4741    2.2952   -2.6781 C   0  0  0  0  0
    2.9255    2.0531   -4.5006 C   0  0  0  0  0
   -2.9276   -4.5772   -1.0584 C   0  0  0  0  0
   -2.5818   -0.7811    2.1527 C   0  0  0  0  0
    1.0050    2.8669   -2.1804 N   0  0  0  0  0
    3.0655    2.0941   -3.0398 N   0  0  0  0  0
   -1.1352    1.5967    0.5702 N   0  0  0  0  0
    3.0747   -1.1205   -1.9029 O   0  0  0  0  0
    4.1796    0.1944   -0.4372 O   0  0  0  0  0
   -3.6905    1.6837    0.9897 O   0  0  0  0  0
   -2.8436    2.0363   -1.3464 O   0  0  0  0  0
   -2.7281    1.3867   -0.0550 S   0  0  0  0  0
  1  7  1  0  0  0
  2 10  1  0  0  0
  3  9  1  0  0  0
  4  8  1  0  0  0
  5 19  1  0  0  0
  6 11  1  0  0  0
  6 12  1  0  0  0
  9 21  1  0  0  0
 11 20  1  0  0  0
 12 22  1  0  0  0
 13 14  1  0  0  0
 13 15  1  0  0  0
 14 16  1  0  0  0
 15 20  1  0  0  0
 16 20  1  0  0  0
 17  7  1  0  0  0
 18  8  1  0  0  0
 26 10  1  0  0  0
 26 21  1  0  0  0
  1  2  2  0  0  0
  3  6  2  0  0  0
  4  7  2  0  0  0
  5  9  2  0  0  0
  8 10  2  0  0  0
 11 19  2  0  0  0
 12 23  2  0  0  0
 26 24  2  0  0  0
 26 25  2  0  0  0
M  CHG  1  22  -1
M  END
> <rmsd>
0.692189217

$$$$
ZINC64843332


 26 28  0  0  0  0  0  0  0  0999 V2000
   -3.4355   -2.2398   -1.7868 C   0  0  0  0  0
   -3.2612   -0.8717   -1.5779 C   0  0  0  0  0
    0.8666    0.4565   -0.6607 C   0  0  0  0  0
   -3.0528   -2.6474    0.5636 C   0  0  0  0  0
   -0.0691    2.4439   -1.5726 C   0  0  0  0  0
    1.8334    0.4896   -1.6594 C   0  0  0  0  0
   -3.3314   -3.1276   -0.7160 C   0  0  0  0  0
   -2.8785   -1.2793    0.7725 C   0  0  0  0  0
   -0.1064    1.4485   -0.6095 C   0  0  0  0  0
   -2.9826   -0.3915   -0.2983 C   0  0  0  0  0
    1.7837    1.5278   -2.5757 C   0  0  0  0  0
    2.8629   -0.5625   -1.7115 C   0  0  0  0  0
    4.7909    1.9847   -4.7345 C   0  0  0  0  0
    3.8389    1.2785   -5.6784 C   0  0  0  0  0
    4.2071    1.6620   -3.3638 C   0  0  0  0  0
    2.4806    1.5217   -5.0304 C   0  0  0  0  0
   -3.5176   -4.5906   -0.9401 C   0  0  0  0  0
   -2.5813   -0.7977    2.1549 C   0  0  0  0  0
    0.8542    2.5093   -2.5579 N   0  0  0  0  0
    2.7595    1.5678   -3.5898 N   0  0  0  0  0
   -1.1104    1.4415    0.4019 N   0  0  0  0  0
    2.6276   -1.6247   -2.3996 O   0  0  0  0  0
    3.9628   -0.3842   -1.0669 O   0  0  0  0  0
   -3.6008    1.7332    1.0542 O   0  0  0  0  0
   -2.9518    1.9923   -1.3563 O   0  0  0  0  0
   -2.7663    1.3502   -0.0693 S   0  0  0  0  0
  1  7  1  0  0  0
  2 10  1  0  0  0
  3  9  1  0  0  0
  4  8  1  0  0  0
  5 19  1  0  0  0
  6 11  1  0  0  0
  6 12  1  0  0  0
  9 21  1  0  0  0
 11 20  1  0  0  0
 12 22  1  0  0  0
 13 14  1  0  0  0
 13 15  1  0  0  0
 14 16  1  0  0  0
 15 20  1  0  0  0
 16 20  1  0  0  0
 17  7  1  0  0  0
 18  8  1  0  0  0
 26 10  1  0  0  0
 26 21  1  0  0  0
  1  2  2  0  0  0
  3  6  2  0  0  0
  4  7  2  0  0  0
  5  9  2  0  0  0
  8 10  2  0  0  0
 11 19  2  0  0  0
 12 23  2  0  0  0
 26 24  2  0  0  0
 26 25  2  0  0  0
M  CHG  1  22  -1
M  END
> <rmsd>
0.512557924

$$$$
ZINC64843318


 26 28  0  0  0  0  0  0  0  0999 V2000
   -3.3293   -3.1264   -0.6922 C   0  0  0  0  0
   -3.5697   -2.5597    0.5593 C   0  0  0  0  0
   -2.9161   -2.3222   -1.7544 C   0  0  0  0  0
   -3.3970   -1.1886    0.7489 C   0  0  0  0  0
   -2.7434   -0.9511   -1.5648 C   0  0  0  0  0
    0.8682    0.4574   -0.6603 C   0  0  0  0  0
   -0.0606    2.4526   -1.5619 C   0  0  0  0  0
    1.8377    0.4946   -1.6563 C   0  0  0  0  0
   -0.1025    1.4512   -0.6052 C   0  0  0  0  0
   -2.9837   -0.3843   -0.3131 C   0  0  0  0  0
    1.7927    1.5388   -2.5661 C   0  0  0  0  0
    2.8650   -0.5594   -1.7125 C   0  0  0  0  0
    4.6906    1.0618   -6.1899 C   0  0  0  0  0
    5.2922    2.3057   -5.5528 C   0  0  0  0  0
    3.1959    0.8918   -5.9410 C   0  0  0  0  0
    5.0869    2.3981   -4.0449 C   0  0  0  0  0
    2.8649    0.4637   -4.5113 C   0  0  0  0  0
    3.6519    2.7464   -3.6495 C   0  0  0  0  0
    0.8654    2.5222   -2.5444 N   0  0  0  0  0
    2.7661    1.5829   -3.5722 N   0  0  0  0  0
   -1.1092    1.4400    0.4034 N   0  0  0  0  0
    2.6291   -1.6167   -2.4081 O   0  0  0  0  0
    3.9637   -0.3878   -1.0640 O   0  0  0  0  0
   -3.6007    1.7331    1.0513 O   0  0  0  0  0
   -2.9448    2.0062   -1.3559 O   0  0  0  0  0
   -2.7641    1.3554   -0.0724 S   0  0  0  0  0
  1  2  1  0  0  0
  3  5  1  0  0  0
  4 10  1  0  0  0
  6  9  1  0  0  0
  7 19  1  0  0  0
  8 11  1  0  0  0
  8 12  1  0  0  0
  9 21  1  0  0  0
 11 20  1  0  0  0
 12 22  1  0  0  0
 13 14  1  0  0  0
 13 15  1  0  0  0
 14 16  1  0  0  0
 15 17  1  0  0  0
 16 18  1  0  0  0
 17 20  1  0  0  0
 18 20  1  0  0  0
 26 10  1  0  0  0
 26 21  1  0  0  0
  1  3  2  0  0  0
  2  4  2  0  0  0
  5 10  2  0  0  0
  6  8  2  0  0  0
  7  9  2  0  0  0
 11 19  2  0  0  0
 12 23  2  0  0  0
 26 24  2  0  0  0
 26 25  2  0  0  0
M  CHG  1  22  -1
M  END
> <rmsd>
0.510335207

$$$$
ZINC64843318


 26 28  0  0  0  0  0  0  0  0999 V2000
   -2.8796   -3.1083   -0.7760 C   0  0  0  0  0
   -3.2790   -2.5841    0.4533 C   0  0  0  0  0
   -2.4330   -2.2558   -1.7858 C   0  0  0  0  0
   -3.2321   -1.2074    0.6729 C   0  0  0  0  0
   -2.3861   -0.8791   -1.5662 C   0  0  0  0  0
    1.0046    0.7854   -0.3099 C   0  0  0  0  0
    0.0112    2.7195   -1.2738 C   0  0  0  0  0
    2.0569    0.9146   -1.2095 C   0  0  0  0  0
   -0.0416    1.7008   -0.3360 C   0  0  0  0  0
   -2.7856   -0.3549   -0.3368 C   0  0  0  0  0
    2.0157    1.9684   -2.1083 C   0  0  0  0  0
    3.1640   -0.0565   -1.1798 C   0  0  0  0  0
    5.2672    1.7799   -5.4473 C   0  0  0  0  0
    5.7080    3.0546   -4.7431 C   0  0  0  0  0
    3.7737    1.4915   -5.3424 C   0  0  0  0  0
    5.3564    3.1039   -3.2604 C   0  0  0  0  0
    3.3452    1.0137   -3.9550 C   0  0  0  0  0
    3.8681    3.3341   -2.9985 C   0  0  0  0  0
    1.0165    2.8774   -2.1637 N   0  0  0  0  0
    3.0723    2.1050   -3.0175 N   0  0  0  0  0
   -1.1339    1.5944    0.5729 N   0  0  0  0  0
    3.0770   -1.1161   -1.9057 O   0  0  0  0  0
    4.1806    0.1872   -0.4287 O   0  0  0  0  0
   -3.6902    1.6842    0.9858 O   0  0  0  0  0
   -2.8360    2.0498   -1.3456 O   0  0  0  0  0
   -2.7256    1.3919   -0.0579 S   0  0  0  0  0
  1  2  1  0  0  0
  3  5  1  0  0  0
  4 10  1  0  0  0
  6  9  1  0  0  0
  7 19  1  0  0  0
  8 11  1  0  0  0
  8 12  1  0  0  0
  9 21  1  0  0  0
 11 20  1  0  0  0
 12 22  1  0  0  0
 13 14  1  0  0  0
 13 15  1  0  0  0
 14 16  1  0  0  0
 15 17  1  0  0  0
 16 18  1  0  0  0
 17 20  1  0  0  0
 18 20  1  0  0  0
 26 10  1  0  0  0
 26 21  1  0  0  0
  1  3  2  0  0  0
  2  4  2  0  0  0
  5 10  2  0  0  0
  6  8  2  0  0  0
  7  9  2  0  0  0
 11 19  2  0  0  0
 12 23  2  0  0  0
 26 24  2  0  0  0
 26 25  2  0  0  0
M  CHG  1  22  -1
M  END
> <rmsd>
0.689454854

$$$$
ZINC47318127


 23 24  0  0  0  0  0  0  0  0999 V2000
   -0.1097    2.5051   -1.5768 C   0  0  0  0  0
   -3.5376   -2.5665    0.5381 C   0  0  0  0  0
   -3.3719   -1.1959    0.7369 C   0  0  0  0  0
    0.8649    2.5301   -2.5742 C   0  0  0  0  0
    0.8589    0.4810   -0.6812 C   0  0  0  0  0
   -2.7439   -0.9356   -1.5815 C   0  0  0  0  0
    1.8336    0.5060   -1.6787 C   0  0  0  0  0
   -0.1127    1.4805   -0.6302 C   0  0  0  0  0
   -3.3063   -3.1218   -0.7204 C   0  0  0  0  0
   -2.9752   -0.3804   -0.3229 C   0  0  0  0  0
    1.8366    1.5306   -2.6253 C   0  0  0  0  0
   -2.9095   -2.3062   -1.7802 C   0  0  0  0  0
    2.8443   -0.5687   -1.7003 C   0  0  0  0  0
   -4.7739   -4.9099   -1.2723 C   0  0  0  0  0
   -1.1107    1.4551    0.3906 N   0  0  0  0  0
    2.5970   -1.6336   -2.3779 O   0  0  0  0  0
    3.9355   -0.4017   -1.0405 O   0  0  0  0  0
   -3.5958    1.7209    1.0645 O   0  0  0  0  0
   -2.9670    2.0184   -1.3471 O   0  0  0  0  0
   -3.4760   -4.4641   -0.8855 O   0  0  0  0  0
   -2.7677    1.3591   -0.0707 S   0  0  0  0  0
    3.0254    1.5988   -3.8758 Cl  0  0  0  0  0
   -2.6163   -2.9660   -3.3470 Cl  0  0  0  0  0
  1  8  1  0  0  0
  2  9  1  0  0  0
  3 10  1  0  0  0
  4 11  1  0  0  0
  5  7  1  0  0  0
  6 12  1  0  0  0
  7 13  1  0  0  0
  8 15  1  0  0  0
  9 20  1  0  0  0
 11 22  1  0  0  0
 12 23  1  0  0  0
 13 16  1  0  0  0
 14 20  1  0  0  0
 21 10  1  0  0  0
 21 15  1  0  0  0
  1  4  2  0  0  0
  2  3  2  0  0  0
  5  8  2  0  0  0
  6 10  2  0  0  0
  7 11  2  0  0  0
  9 12  2  0  0  0
 13 17  2  0  0  0
 21 18  2  0  0  0
 21 19  2  0  0  0
M  CHG  1  16  -1
M  END
> <rmsd>
0.528406262

$$$$
ZINC47318127


 23 24  0  0  0  0  0  0  0  0999 V2000
   -0.0411    2.7709   -1.2929 C   0  0  0  0  0
   -3.2416   -2.5888    0.4319 C   0  0  0  0  0
   -3.2033   -1.2135    0.6610 C   0  0  0  0  0
    1.0170    2.8898   -2.1937 C   0  0  0  0  0
    0.9961    0.8112   -0.3331 C   0  0  0  0  0
   -2.3848   -0.8622   -1.5848 C   0  0  0  0  0
    2.0543    0.9301   -1.2340 C   0  0  0  0  0
   -0.0516    1.7316   -0.3625 C   0  0  0  0  0
   -2.8513   -3.1010   -0.8055 C   0  0  0  0  0
   -2.7750   -0.3501   -0.3474 C   0  0  0  0  0
    2.0648    1.9694   -2.1644 C   0  0  0  0  0
   -2.4229   -2.2376   -1.8138 C   0  0  0  0  0
    3.1440   -0.0628   -1.1725 C   0  0  0  0  0
   -4.1160   -4.9864   -1.5134 C   0  0  0  0  0
   -1.1351    1.6102    0.5594 N   0  0  0  0  0
    3.0453   -1.1307   -1.8825 O   0  0  0  0  0
    4.1526    0.1756   -0.4110 O   0  0  0  0  0
   -3.6853    1.6707    0.9992 O   0  0  0  0  0
   -2.8603    2.0609   -1.3388 O   0  0  0  0  0
   -2.8988   -4.4490   -1.0011 O   0  0  0  0  0
   -2.7293    1.3952   -0.0570 S   0  0  0  0  0
    3.3557    2.1525   -3.2966 Cl  0  0  0  0  0
   -1.9343   -2.8433   -3.3534 Cl  0  0  0  0  0
  1  8  1  0  0  0
  2  9  1  0  0  0
  3 10  1  0  0  0
  4 11  1  0  0  0
  5  7  1  0  0  0
  6 12  1  0  0  0
  7 13  1  0  0  0
  8 15  1  0  0  0
  9 20  1  0  0  0
 11 22  1  0  0  0
 12 23  1  0  0  0
 13 16  1  0  0  0
 14 20  1  0  0  0
 21 10  1  0  0  0
 21 15  1  0  0  0
  1  4  2  0  0  0
  2  3  2  0  0  0
  5  8  2  0  0  0
  6 10  2  0  0  0
  7 11  2  0  0  0
  9 12  2  0  0  0
 13 17  2  0  0  0
 21 18  2  0  0  0
 21 19  2  0  0  0
M  CHG  1  16  -1
M  END
> <rmsd>
0.709390819

$$$$
ZINC71284119


 28 30  0  0  0  0  0  0  0  0999 V2000
   -4.1058   -3.2552   -0.0194 C   0  0  0  0  0
   -1.8709    5.2585   -0.1366 C   0  0  0  0  0
   -3.7021   -2.4073    1.0118 C   0  0  0  0  0
   -4.1253   -2.7930   -1.3353 C   0  0  0  0  0
   -0.5017    5.0775    0.0576 C   0  0  0  0  0
   -2.7286    4.1584   -0.1251 C   0  0  0  0  0
   -3.3178   -1.0969    0.7272 C   0  0  0  0  0
   -3.7410   -1.4827   -1.6200 C   0  0  0  0  0
    0.0102    3.7963    0.2633 C   0  0  0  0  0
    0.7506   -2.2456    1.8240 C   0  0  0  0  0
    1.6034   -3.0369    1.0864 C   0  0  0  0  0
   -2.2167    2.8772    0.0805 C   0  0  0  0  0
   -3.3373   -0.6346   -0.5888 C   0  0  0  0  0
   -0.8473    2.6962    0.2747 C   0  0  0  0  0
    1.2098   -0.4733    0.4538 C   0  0  0  0  0
    2.0633   -1.2643   -0.2833 C   0  0  0  0  0
   -3.1400    1.7493    0.0866 C   0  0  0  0  0
    0.9666    0.9438    0.1344 C   0  0  0  0  0
    2.7886   -0.7209   -1.4457 C   0  0  0  0  0
   -2.3269    1.0424   -2.1848 C   0  0  0  0  0
    0.5384   -0.9497    1.5209 N   0  0  0  0  0
    2.2751   -2.5604    0.0195 N   0  0  0  0  0
   -0.3119    1.4217    0.4807 N   0  0  0  0  0
   -2.9377    0.7274   -0.8844 N   0  0  0  0  0
    2.2363   -0.7903   -2.6061 O   0  0  0  0  0
   -4.0685    1.7107    0.9032 O   0  0  0  0  0
    1.8252    1.6227   -0.4248 O   0  0  0  0  0
    3.9489   -0.1965   -1.2598 O   0  0  0  0  0
  1  3  1  0  0  0
  2  5  1  0  0  0
  4  8  1  0  0  0
  6 12  1  0  0  0
  7 13  1  0  0  0
  9 14  1  0  0  0
 10 21  1  0  0  0
 11 22  1  0  0  0
 12 17  1  0  0  0
 13 24  1  0  0  0
 14 23  1  0  0  0
 15 16  1  0  0  0
 15 18  1  0  0  0
 16 19  1  0  0  0
 17 24  1  0  0  0
 18 23  1  0  0  0
 19 25  1  0  0  0
 20 24  1  0  0  0
  1  4  2  0  0  0
  2  6  2  0  0  0
  3  7  2  0  0  0
  5  9  2  0  0  0
  8 13  2  0  0  0
 10 11  2  0  0  0
 12 14  2  0  0  0
 15 21  2  0  0  0
 16 22  2  0  0  0
 17 26  2  0  0  0
 18 27  2  0  0  0
 19 28  2  0  0  0
M  CHG  1  25  -1
M  END
> <rmsd>
0.446347177

$$$$
ZINC13341673


 26 27  0  0  0  0  0  0  0  0999 V2000
   -2.9135   -2.3101   -1.7739 C   0  0  0  0  0
   -3.5522   -2.5637    0.5424 C   0  0  0  0  0
   -2.7458   -0.9393   -1.5776 C   0  0  0  0  0
   -3.3844   -1.1929    0.7386 C   0  0  0  0  0
    1.8185    1.4710   -2.6475 C   0  0  0  0  0
   -0.1291    2.4589   -1.6142 C   0  0  0  0  0
    0.8589    0.4660   -0.6710 C   0  0  0  0  0
    0.8399    2.4645   -2.6174 C   0  0  0  0  0
    1.8280    0.4717   -1.6743 C   0  0  0  0  0
   -3.3167   -3.1222   -0.7138 C   0  0  0  0  0
   -0.1197    1.4596   -0.6410 C   0  0  0  0  0
   -2.9812   -0.3807   -0.3214 C   0  0  0  0  0
    0.8301    3.5190   -3.6444 C   0  0  0  0  0
    2.8608   -0.5769   -1.7062 C   0  0  0  0  0
   -2.1706   -5.2609   -1.3908 C   0  0  0  0  0
   -4.5788   -4.8737   -2.0126 C   0  0  0  0  0
   -3.9538   -5.3952    0.3366 C   0  0  0  0  0
   -3.5039   -4.6330   -0.9304 C   0  0  0  0  0
   -1.1181    1.4545    0.3941 N   0  0  0  0  0
   -0.0844    4.4244   -3.5942 O   0  0  0  0  0
    2.8472   -1.4876   -0.7959 O   0  0  0  0  0
    1.7361    3.5013   -4.5596 O   0  0  0  0  0
    3.7437   -0.5486   -2.6432 O   0  0  0  0  0
   -3.5946    1.7240    1.0643 O   0  0  0  0  0
   -2.9680    2.0168   -1.3484 O   0  0  0  0  0
   -2.7716    1.3350   -0.0749 S   0  0  0  0  0
  1 10  1  0  0  0
  2  4  1  0  0  0
  3 12  1  0  0  0
  5  8  1  0  0  0
  6 11  1  0  0  0
  7  9  1  0  0  0
  8 13  1  0  0  0
  9 14  1  0  0  0
 11 19  1  0  0  0
 13 20  1  0  0  0
 14 21  1  0  0  0
 15 18  1  0  0  0
 16 18  1  0  0  0
 17 18  1  0  0  0
 18 10  1  0  0  0
 26 12  1  0  0  0
 26 19  1  0  0  0
  1  3  2  0  0  0
  2 10  2  0  0  0
  4 12  2  0  0  0
  5  9  2  0  0  0
  6  8  2  0  0  0
  7 11  2  0  0  0
 13 22  2  0  0  0
 14 23  2  0  0  0
 26 24  2  0  0  0
 26 25  2  0  0  0
M  CHG  2  20  -1  21  -1
M  END
> <rmsd>
0.519914508

$$$$
ZINC07357406


 26 28  0  0  0  0  0  0  0  0999 V2000
   -2.4317   -2.2437   -1.8166 C   0  0  0  0  0
   -3.2489   -2.5905    0.4304 C   0  0  0  0  0
   -0.0537    2.7210   -1.3501 C   0  0  0  0  0
    0.9956    2.8205   -2.2637 C   0  0  0  0  0
   -2.3895   -0.8683   -1.5890 C   0  0  0  0  0
   -3.2066   -1.2150    0.6581 C   0  0  0  0  0
    1.0008    0.7914   -0.3491 C   0  0  0  0  0
   -2.8615   -3.1049   -0.8069 C   0  0  0  0  0
   -0.0510    1.7065   -0.3927 C   0  0  0  0  0
    2.0474    1.9053   -2.2201 C   0  0  0  0  0
    2.0501    0.8909   -1.2628 C   0  0  0  0  0
   -2.7768   -0.3539   -0.3517 C   0  0  0  0  0
   -3.4187   -7.4236   -0.3249 C   0  0  0  0  0
   -4.3723   -6.6616   -1.2402 C   0  0  0  0  0
   -1.9975   -6.8756   -0.4115 C   0  0  0  0  0
   -4.3401   -5.1596   -0.9636 C   0  0  0  0  0
   -1.9535   -5.3747   -0.1308 C   0  0  0  0  0
   -2.9096   -4.5974   -1.0543 C   0  0  0  0  0
    3.0988    2.0282   -3.1570 N   0  0  0  0  0
   -1.1328    1.6046    0.5494 N   0  0  0  0  0
    3.1102   -0.0563   -1.1975 N   0  0  0  0  0
    3.0180   -1.1142   -1.8630 O   0  0  0  0  0
    4.1038    0.1965   -0.4766 O   0  0  0  0  0
   -3.6718    1.6701    1.0005 O   0  0  0  0  0
   -2.8613    2.0571   -1.3432 O   0  0  0  0  0
   -2.7245    1.3678   -0.0660 S   0  0  0  0  0
  1  5  1  0  0  0
  2  8  1  0  0  0
  3  9  1  0  0  0
  4 10  1  0  0  0
  6 12  1  0  0  0
  7 11  1  0  0  0
  9 20  1  0  0  0
 10 19  1  0  0  0
 11 21  1  0  0  0
 13 14  1  0  0  0
 13 15  1  0  0  0
 14 16  1  0  0  0
 15 17  1  0  0  0
 16 18  1  0  0  0
 17 18  1  0  0  0
 18  8  1  0  0  0
 21 22  1  0  0  0
 26 12  1  0  0  0
 26 20  1  0  0  0
  1  8  2  0  0  0
  2  6  2  0  0  0
  3  4  2  0  0  0
  5 12  2  0  0  0
  7  9  2  0  0  0
 10 11  2  0  0  0
 21 23  2  0  0  0
 26 24  2  0  0  0
 26 25  2  0  0  0
M  CHG  2  21   1  22  -1
M  END
> <rmsd>
0.7107777

$$$$
ZINC33253668


 26 27  0  0  0  0  0  0  0  0999 V2000
   -3.5407   -2.5670    0.5353 C   0  0  0  0  0
   -2.9081   -2.3062   -1.7817 C   0  0  0  0  0
   -0.1356    2.4676   -1.6197 C   0  0  0  0  0
    0.8298    2.4762   -2.6264 C   0  0  0  0  0
   -3.3763   -1.1963    0.7345 C   0  0  0  0  0
   -2.7437   -0.9354   -1.5826 C   0  0  0  0  0
    0.8584    0.4744   -0.6836 C   0  0  0  0  0
    1.8238    0.4829   -1.6905 C   0  0  0  0  0
   -3.3065   -3.1220   -0.7227 C   0  0  0  0  0
   -0.1212    1.4667   -0.6482 C   0  0  0  0  0
    1.8094    1.4839   -2.6619 C   0  0  0  0  0
   -2.9778   -0.3805   -0.3244 C   0  0  0  0  0
    2.8491   -0.5773   -1.7046 C   0  0  0  0  0
   -1.7012   -5.2722    0.7564 C   0  0  0  0  0
   -2.4718   -6.9062   -0.9756 C   0  0  0  0  0
    4.0206    2.2297   -3.5075 C   0  0  0  0  0
    2.5429    0.8045   -4.9337 C   0  0  0  0  0
   -3.4823   -4.6055   -0.9381 C   0  0  0  0  0
   -2.2045   -5.4282   -0.6808 C   0  0  0  0  0
   -1.1171    1.4578    0.3893 N   0  0  0  0  0
    2.7775    1.5096   -3.6905 N   0  0  0  0  0
    2.6085   -1.6590   -2.3581 O   0  0  0  0  0
    3.9468   -0.3824   -1.0629 O   0  0  0  0  0
   -3.5925    1.7207    1.0659 O   0  0  0  0  0
   -2.9724    2.0185   -1.3479 O   0  0  0  0  0
   -2.7715    1.3353   -0.0759 S   0  0  0  0  0
  1  9  1  0  0  0
  2  6  1  0  0  0
  3 10  1  0  0  0
  4 11  1  0  0  0
  5 12  1  0  0  0
  7  8  1  0  0  0
  8 13  1  0  0  0
 10 20  1  0  0  0
 11 21  1  0  0  0
 13 22  1  0  0  0
 14 19  1  0  0  0
 15 19  1  0  0  0
 16 21  1  0  0  0
 17 21  1  0  0  0
 18  9  1  0  0  0
 18 19  1  0  0  0
 26 12  1  0  0  0
 26 20  1  0  0  0
  1  5  2  0  0  0
  2  9  2  0  0  0
  3  4  2  0  0  0
  6 12  2  0  0  0
  7 10  2  0  0  0
  8 11  2  0  0  0
 13 23  2  0  0  0
 26 24  2  0  0  0
 26 25  2  0  0  0
M  CHG  1  22  -1
M  END
> <rmsd>
0.527821004

$$$$
ZINC33253668


 26 27  0  0  0  0  0  0  0  0999 V2000
   -3.2371   -2.5900    0.4247 C   0  0  0  0  0
   -2.4212   -2.2326   -1.8210 C   0  0  0  0  0
   -0.0686    2.7411   -1.3431 C   0  0  0  0  0
    0.9797    2.8467   -2.2571 C   0  0  0  0  0
   -3.2023   -1.2150    0.6562 C   0  0  0  0  0
   -2.3865   -0.8575   -1.5897 C   0  0  0  0  0
    0.9944    0.8141   -0.3464 C   0  0  0  0  0
    2.0428    0.9195   -1.2605 C   0  0  0  0  0
   -2.8465   -3.0989   -0.8138 C   0  0  0  0  0
   -0.0612    1.7248   -0.3876 C   0  0  0  0  0
    2.0354    1.9359   -2.2159 C   0  0  0  0  0
   -2.7771   -0.3487   -0.3510 C   0  0  0  0  0
    3.1473   -0.0558   -1.1948 C   0  0  0  0  0
   -1.2130   -5.1452    0.7775 C   0  0  0  0  0
   -1.6900   -6.7993   -1.0391 C   0  0  0  0  0
    4.2464    2.8713   -2.8457 C   0  0  0  0  0
    3.0230    1.3633   -4.4198 C   0  0  0  0  0
   -2.8819   -4.5869   -1.0639 C   0  0  0  0  0
   -1.5704   -5.3111   -0.7017 C   0  0  0  0  0
   -1.1426    1.6160    0.5541 N   0  0  0  0  0
    3.0870    2.0591   -3.1512 N   0  0  0  0  0
    3.0547   -1.1395   -1.8817 O   0  0  0  0  0
    4.1634    0.2122   -0.4528 O   0  0  0  0  0
   -3.6820    1.6684    1.0048 O   0  0  0  0  0
   -2.8729    2.0637   -1.3379 O   0  0  0  0  0
   -2.7331    1.3726   -0.0620 S   0  0  0  0  0
  1  9  1  0  0  0
  2  6  1  0  0  0
  3 10  1  0  0  0
  4 11  1  0  0  0
  5 12  1  0  0  0
  7  8  1  0  0  0
  8 13  1  0  0  0
 10 20  1  0  0  0
 11 21  1  0  0  0
 13 22  1  0  0  0
 14 19  1  0  0  0
 15 19  1  0  0  0
 16 21  1  0  0  0
 17 21  1  0  0  0
 18  9  1  0  0  0
 18 19  1  0  0  0
 26 12  1  0  0  0
 26 20  1  0  0  0
  1  5  2  0  0  0
  2  9  2  0  0  0
  3  4  2  0  0  0
  6 12  2  0  0  0
  7 10  2  0  0  0
  8 11  2  0  0  0
 13 23  2  0  0  0
 26 24  2  0  0  0
 26 25  2  0  0  0
M  CHG  1  22  -1
M  END
> <rmsd>
0.711543322

$$$$
ZINC33253645


 26 27  0  0  0  0  0  0  0  0999 V2000
   -3.5399   -2.5650    0.5397 C   0  0  0  0  0
   -0.1067    2.5020   -1.5744 C   0  0  0  0  0
    0.8689    2.5250   -2.5709 C   0  0  0  0  0
   -3.3762   -1.1940    0.7371 C   0  0  0  0  0
    0.8580    0.4770   -0.6767 C   0  0  0  0  0
   -2.7415   -0.9362   -1.5798 C   0  0  0  0  0
    1.8337    0.5000   -1.6733 C   0  0  0  0  0
   -3.3043   -3.1217   -0.7175 C   0  0  0  0  0
   -2.9052   -2.3073   -1.7772 C   0  0  0  0  0
   -0.1122    1.4780   -0.6272 C   0  0  0  0  0
    1.8392    1.5240   -2.6204 C   0  0  0  0  0
   -2.9772   -0.3795   -0.3226 C   0  0  0  0  0
    2.8486   -0.5699   -1.7028 C   0  0  0  0  0
   -3.4853   -4.5924   -0.9044 C   0  0  0  0  0
   -2.6458   -2.8808   -3.1315 C   0  0  0  0  0
    3.9028    3.7329   -3.6471 C   0  0  0  0  0
    1.8981    1.7889   -5.8703 C   0  0  0  0  0
    4.0661    2.2676   -3.4254 C   0  0  0  0  0
    2.5893    0.8921   -4.9003 C   0  0  0  0  0
   -1.1115    1.4543    0.3922 N   0  0  0  0  0
    2.8179    1.5647   -3.6383 N   0  0  0  0  0
    2.6041   -1.6331   -2.3844 O   0  0  0  0  0
    3.9415   -0.4014   -1.0454 O   0  0  0  0  0
   -3.5973    1.7233    1.0627 O   0  0  0  0  0
   -2.9649    2.0186   -1.3483 O   0  0  0  0  0
   -2.7680    1.3600   -0.0713 S   0  0  0  0  0
  1  8  1  0  0  0
  2 10  1  0  0  0
  3 11  1  0  0  0
  4 12  1  0  0  0
  5  7  1  0  0  0
  6  9  1  0  0  0
  7 13  1  0  0  0
 10 20  1  0  0  0
 11 21  1  0  0  0
 13 22  1  0  0  0
 14  8  1  0  0  0
 15  9  1  0  0  0
 16 18  1  0  0  0
 17 19  1  0  0  0
 18 21  1  0  0  0
 19 21  1  0  0  0
 26 12  1  0  0  0
 26 20  1  0  0  0
  1  4  2  0  0  0
  2  3  2  0  0  0
  5 10  2  0  0  0
  6 12  2  0  0  0
  7 11  2  0  0  0
  8  9  2  0  0  0
 13 23  2  0  0  0
 26 24  2  0  0  0
 26 25  2  0  0  0
M  CHG  1  22  -1
M  END
> <rmsd>
0.526335895

$$$$
ZINC33253645


 26 27  0  0  0  0  0  0  0  0999 V2000
   -3.2444   -2.5874    0.4335 C   0  0  0  0  0
   -0.0379    2.7677   -1.2902 C   0  0  0  0  0
    1.0212    2.8845   -2.1901 C   0  0  0  0  0
   -3.2080   -1.2118    0.6610 C   0  0  0  0  0
    0.9950    0.8067   -0.3287 C   0  0  0  0  0
   -2.3828   -0.8626   -1.5828 C   0  0  0  0  0
    2.0543    0.9235   -1.2287 C   0  0  0  0  0
   -2.8500   -3.1007   -0.8021 C   0  0  0  0  0
   -2.4192   -2.2384   -1.8102 C   0  0  0  0  0
   -0.0511    1.7289   -0.3594 C   0  0  0  0  0
    2.0675    1.9624   -2.1595 C   0  0  0  0  0
   -2.7773   -0.3494   -0.3471 C   0  0  0  0  0
    3.1485   -0.0642   -1.1747 C   0  0  0  0  0
   -2.8969   -4.5772   -1.0219 C   0  0  0  0  0
   -1.9908   -2.7648   -3.1405 C   0  0  0  0  0
    4.0378    4.3426   -2.9621 C   0  0  0  0  0
    2.4074    2.2916   -5.3861 C   0  0  0  0  0
    4.2943    2.8904   -2.7427 C   0  0  0  0  0
    3.0736    1.4329   -4.3656 C   0  0  0  0  0
   -1.1359    1.6093    0.5610 N   0  0  0  0  0
    3.1304    2.0975   -3.0801 N   0  0  0  0  0
    3.0526   -1.1301   -1.8883 O   0  0  0  0  0
    4.1589    0.1757   -0.4155 O   0  0  0  0  0
   -3.6867    1.6732    0.9975 O   0  0  0  0  0
   -2.8581    2.0613   -1.3397 O   0  0  0  0  0
   -2.7296    1.3961   -0.0574 S   0  0  0  0  0
  1  8  1  0  0  0
  2 10  1  0  0  0
  3 11  1  0  0  0
  4 12  1  0  0  0
  5  7  1  0  0  0
  6  9  1  0  0  0
  7 13  1  0  0  0
 10 20  1  0  0  0
 11 21  1  0  0  0
 13 22  1  0  0  0
 14  8  1  0  0  0
 15  9  1  0  0  0
 16 18  1  0  0  0
 17 19  1  0  0  0
 18 21  1  0  0  0
 19 21  1  0  0  0
 26 12  1  0  0  0
 26 20  1  0  0  0
  1  4  2  0  0  0
  2  3  2  0  0  0
  5 10  2  0  0  0
  6 12  2  0  0  0
  7 11  2  0  0  0
  8  9  2  0  0  0
 13 23  2  0  0  0
 26 24  2  0  0  0
 26 25  2  0  0  0
M  CHG  1  22  -1
M  END
> <rmsd>
0.707552552

$$$$
ZINC33253489


 26 27  0  0  0  0  0  0  0  0999 V2000
   -3.3051   -3.1222   -0.7167 C   0  0  0  0  0
   -3.5397   -2.5658    0.5406 C   0  0  0  0  0
   -2.9061   -2.3077   -1.7764 C   0  0  0  0  0
   -0.1065    2.5014   -1.5740 C   0  0  0  0  0
    0.8691    2.5244   -2.5707 C   0  0  0  0  0
   -3.3755   -1.1949    0.7382 C   0  0  0  0  0
   -2.7418   -0.9367   -1.5789 C   0  0  0  0  0
    0.8585    0.4767   -0.6759 C   0  0  0  0  0
    1.8341    0.4997   -1.6726 C   0  0  0  0  0
   -0.1118    1.4776   -0.6267 C   0  0  0  0  0
    1.8393    1.5235   -2.6199 C   0  0  0  0  0
   -2.9764   -0.3802   -0.3215 C   0  0  0  0  0
    2.8492   -0.5701   -1.7019 C   0  0  0  0  0
    4.2362    4.1875   -3.3410 C   0  0  0  0  0
    1.2053    0.1464   -6.8203 C   0  0  0  0  0
    4.8541    2.9125   -3.8973 C   0  0  0  0  0
    1.6220    0.2292   -5.3586 C   0  0  0  0  0
    4.2145    1.6515   -3.3288 C   0  0  0  0  0
    2.3971    1.5017   -5.0384 C   0  0  0  0  0
   -1.1110    1.4540    0.3930 N   0  0  0  0  0
    2.8131    1.5639   -3.6328 N   0  0  0  0  0
    2.6049   -1.6335   -2.3834 O   0  0  0  0  0
    3.9420   -0.4014   -1.0447 O   0  0  0  0  0
   -3.5968    1.7229    1.0635 O   0  0  0  0  0
   -2.9647    2.0176   -1.3476 O   0  0  0  0  0
   -2.7676    1.3594   -0.0705 S   0  0  0  0  0
  1  2  1  0  0  0
  3  7  1  0  0  0
  4 10  1  0  0  0
  5 11  1  0  0  0
  6 12  1  0  0  0
  8  9  1  0  0  0
  9 13  1  0  0  0
 10 20  1  0  0  0
 11 21  1  0  0  0
 13 22  1  0  0  0
 14 16  1  0  0  0
 15 17  1  0  0  0
 16 18  1  0  0  0
 17 19  1  0  0  0
 18 21  1  0  0  0
 19 21  1  0  0  0
 26 12  1  0  0  0
 26 20  1  0  0  0
  1  3  2  0  0  0
  2  6  2  0  0  0
  4  5  2  0  0  0
  7 12  2  0  0  0
  8 10  2  0  0  0
  9 11  2  0  0  0
 13 23  2  0  0  0
 26 24  2  0  0  0
 26 25  2  0  0  0
M  CHG  1  22  -1
M  END
> <rmsd>
0.526212573

$$$$
ZINC33253489


 26 27  0  0  0  0  0  0  0  0999 V2000
   -2.8514   -3.1013   -0.8011 C   0  0  0  0  0
   -3.2448   -2.5882    0.4347 C   0  0  0  0  0
   -2.4206   -2.2390   -1.8092 C   0  0  0  0  0
   -0.0377    2.7668   -1.2898 C   0  0  0  0  0
    1.0216    2.8833   -2.1898 C   0  0  0  0  0
   -3.2077   -1.2125    0.6624 C   0  0  0  0  0
   -2.3834   -0.8633   -1.5816 C   0  0  0  0  0
    0.9953    0.8060   -0.3277 C   0  0  0  0  0
    2.0546    0.9226   -1.2278 C   0  0  0  0  0
   -0.0508    1.7282   -0.3588 C   0  0  0  0  0
    2.0677    1.9612   -2.1587 C   0  0  0  0  0
   -2.7769   -0.3500   -0.3457 C   0  0  0  0  0
    3.1487   -0.0651   -1.1734 C   0  0  0  0  0
    4.3049    4.8149   -2.6208 C   0  0  0  0  0
    1.9371    0.6176   -6.4154 C   0  0  0  0  0
    5.0699    3.6017   -3.1307 C   0  0  0  0  0
    2.2082    0.7052   -4.9201 C   0  0  0  0  0
    4.4811    2.2849   -2.6392 C   0  0  0  0  0
    2.8480    2.0274   -4.5140 C   0  0  0  0  0
   -1.1356    1.6088    0.5619 N   0  0  0  0  0
    3.1252    2.0953   -3.0749 N   0  0  0  0  0
    3.0530   -1.1313   -1.8868 O   0  0  0  0  0
    4.1591    0.1750   -0.4143 O   0  0  0  0  0
   -3.6864    1.6730    0.9982 O   0  0  0  0  0
   -2.8578    2.0603   -1.3391 O   0  0  0  0  0
   -2.7293    1.3955   -0.0566 S   0  0  0  0  0
  1  2  1  0  0  0
  3  7  1  0  0  0
  4 10  1  0  0  0
  5 11  1  0  0  0
  6 12  1  0  0  0
  8  9  1  0  0  0
  9 13  1  0  0  0
 10 20  1  0  0  0
 11 21  1  0  0  0
 13 22  1  0  0  0
 14 16  1  0  0  0
 15 17  1  0  0  0
 16 18  1  0  0  0
 17 19  1  0  0  0
 18 21  1  0  0  0
 19 21  1  0  0  0
 26 12  1  0  0  0
 26 20  1  0  0  0
  1  3  2  0  0  0
  2  6  2  0  0  0
  4  5  2  0  0  0
  7 12  2  0  0  0
  8 10  2  0  0  0
  9 11  2  0  0  0
 13 23  2  0  0  0
 26 24  2  0  0  0
 26 25  2  0  0  0
M  CHG  1  22  -1
M  END
> <rmsd>
0.70705241

$$$$
ZINC33253355


 26 27  0  0  0  0  0  0  0  0999 V2000
   -3.2444   -2.5888    0.4333 C   0  0  0  0  0
   -2.4204   -2.2384   -1.8106 C   0  0  0  0  0
   -0.0381    2.7666   -1.2906 C   0  0  0  0  0
    1.0210    2.8832   -2.1906 C   0  0  0  0  0
   -3.2075   -1.2133    0.6617 C   0  0  0  0  0
   -2.3835   -0.8629   -1.5823 C   0  0  0  0  0
    0.9952    0.8061   -0.3285 C   0  0  0  0  0
    2.0544    0.9226   -1.2285 C   0  0  0  0  0
   -2.8508   -3.1014   -0.8028 C   0  0  0  0  0
   -0.0511    1.7281   -0.3594 C   0  0  0  0  0
    2.0673    1.9612   -2.1597 C   0  0  0  0  0
   -2.7770   -0.3503   -0.3461 C   0  0  0  0  0
    3.1486   -0.0650   -1.1743 C   0  0  0  0  0
   -2.8882   -4.5721   -1.0467 C   0  0  0  0  0
    1.5789    2.4245   -7.8005 C   0  0  0  0  0
    4.2952    2.9033   -2.7155 C   0  0  0  0  0
    2.3387    1.5912   -6.7802 C   0  0  0  0  0
    2.3935    2.2883   -5.4189 C   0  0  0  0  0
    3.0981    1.4487   -4.3585 C   0  0  0  0  0
   -1.1357    1.6087    0.5612 N   0  0  0  0  0
    3.1247    2.0953   -3.0758 N   0  0  0  0  0
    3.0528   -1.1312   -1.8876 O   0  0  0  0  0
    4.1591    0.1753   -0.4153 O   0  0  0  0  0
   -3.6865    1.6727    0.9979 O   0  0  0  0  0
   -2.8582    2.0600   -1.3395 O   0  0  0  0  0
   -2.7295    1.3952   -0.0570 S   0  0  0  0  0
  1  9  1  0  0  0
  2  6  1  0  0  0
  3 10  1  0  0  0
  4 11  1  0  0  0
  5 12  1  0  0  0
  7  8  1  0  0  0
  8 13  1  0  0  0
 10 20  1  0  0  0
 11 21  1  0  0  0
 13 22  1  0  0  0
 14  9  1  0  0  0
 15 17  1  0  0  0
 16 21  1  0  0  0
 17 18  1  0  0  0
 18 19  1  0  0  0
 19 21  1  0  0  0
 26 12  1  0  0  0
 26 20  1  0  0  0
  1  5  2  0  0  0
  2  9  2  0  0  0
  3  4  2  0  0  0
  6 12  2  0  0  0
  7 10  2  0  0  0
  8 11  2  0  0  0
 13 23  2  0  0  0
 26 24  2  0  0  0
 26 25  2  0  0  0
M  CHG  1  22  -1
M  END
> <rmsd>
0.707154036

$$$$
ZINC33253355


 26 27  0  0  0  0  0  0  0  0999 V2000
   -3.5397   -2.5665    0.5392 C   0  0  0  0  0
   -2.9060   -2.3071   -1.7777 C   0  0  0  0  0
   -0.1071    2.5013   -1.5745 C   0  0  0  0  0
    0.8684    2.5243   -2.5712 C   0  0  0  0  0
   -3.3755   -1.1956    0.7376 C   0  0  0  0  0
   -2.7419   -0.9362   -1.5794 C   0  0  0  0  0
    0.8582    0.4768   -0.6764 C   0  0  0  0  0
    1.8338    0.4997   -1.6731 C   0  0  0  0  0
   -3.3048   -3.1223   -0.7184 C   0  0  0  0  0
   -0.1122    1.4776   -0.6270 C   0  0  0  0  0
    1.8389    1.5236   -2.6206 C   0  0  0  0  0
   -2.9767   -0.3805   -0.3217 C   0  0  0  0  0
    2.8489   -0.5699   -1.7024 C   0  0  0  0  0
   -3.4781   -4.5882   -0.9304 C   0  0  0  0  0
    0.8587    1.9600   -8.1991 C   0  0  0  0  0
    4.0705    2.2818   -3.3985 C   0  0  0  0  0
    1.6448    1.0813   -7.2386 C   0  0  0  0  0
    1.8810    1.7873   -5.9015 C   0  0  0  0  0
    2.6156    0.9070   -4.8958 C   0  0  0  0  0
   -1.1114    1.4540    0.3925 N   0  0  0  0  0
    2.8125    1.5640   -3.6334 N   0  0  0  0  0
    2.6046   -1.6333   -2.3838 O   0  0  0  0  0
    3.9418   -0.4010   -1.0453 O   0  0  0  0  0
   -3.5972    1.7227    1.0631 O   0  0  0  0  0
   -2.9652    2.0175   -1.3479 O   0  0  0  0  0
   -2.7680    1.3591   -0.0708 S   0  0  0  0  0
  1  9  1  0  0  0
  2  6  1  0  0  0
  3 10  1  0  0  0
  4 11  1  0  0  0
  5 12  1  0  0  0
  7  8  1  0  0  0
  8 13  1  0  0  0
 10 20  1  0  0  0
 11 21  1  0  0  0
 13 22  1  0  0  0
 14  9  1  0  0  0
 15 17  1  0  0  0
 16 21  1  0  0  0
 17 18  1  0  0  0
 18 19  1  0  0  0
 19 21  1  0  0  0
 26 12  1  0  0  0
 26 20  1  0  0  0
  1  5  2  0  0  0
  2  9  2  0  0  0
  3  4  2  0  0  0
  6 12  2  0  0  0
  7 10  2  0  0  0
  8 11  2  0  0  0
 13 23  2  0  0  0
 26 24  2  0  0  0
 26 25  2  0  0  0
M  CHG  1  22  -1
M  END
> <rmsd>
0.526082277

$$$$
ZINC33253661


 26 27  0  0  0  0  0  0  0  0999 V2000
   -0.0382    2.7676   -1.2903 C   0  0  0  0  0
    1.0210    2.8843   -2.1902 C   0  0  0  0  0
    0.9951    0.8069   -0.3285 C   0  0  0  0  0
   -2.8521   -3.1007   -0.8030 C   0  0  0  0  0
   -3.2077   -1.2124    0.6615 C   0  0  0  0  0
   -2.3840   -0.8624   -1.5826 C   0  0  0  0  0
    2.0543    0.9236   -1.2286 C   0  0  0  0  0
   -3.2451   -2.5880    0.4332 C   0  0  0  0  0
   -2.4215   -2.2380   -1.8109 C   0  0  0  0  0
   -0.0512    1.7289   -0.3593 C   0  0  0  0  0
    2.0673    1.9623   -2.1595 C   0  0  0  0  0
   -2.7771   -0.3496   -0.3464 C   0  0  0  0  0
    3.1486   -0.0640   -1.1744 C   0  0  0  0  0
   -3.7053   -3.5105    1.5108 C   0  0  0  0  0
   -2.0012   -2.7864   -3.1326 C   0  0  0  0  0
    4.0373    4.3426   -2.9626 C   0  0  0  0  0
    2.4070    2.2910   -5.3862 C   0  0  0  0  0
    4.2940    2.8905   -2.7430 C   0  0  0  0  0
    3.0733    1.4325   -4.3656 C   0  0  0  0  0
   -1.1359    1.6093    0.5612 N   0  0  0  0  0
    3.1301    2.0973   -3.0802 N   0  0  0  0  0
    3.0528   -1.1301   -1.8879 O   0  0  0  0  0
    4.1590    0.1762   -0.4153 O   0  0  0  0  0
   -3.6867    1.6731    0.9978 O   0  0  0  0  0
   -2.8582    2.0609   -1.3395 O   0  0  0  0  0
   -2.7296    1.3958   -0.0571 S   0  0  0  0  0
  1 10  1  0  0  0
  2 11  1  0  0  0
  3  7  1  0  0  0
  4  8  1  0  0  0
  5 12  1  0  0  0
  6  9  1  0  0  0
  7 13  1  0  0  0
 10 20  1  0  0  0
 11 21  1  0  0  0
 13 22  1  0  0  0
 14  8  1  0  0  0
 15  9  1  0  0  0
 16 18  1  0  0  0
 17 19  1  0  0  0
 18 21  1  0  0  0
 19 21  1  0  0  0
 26 12  1  0  0  0
 26 20  1  0  0  0
  1  2  2  0  0  0
  3 10  2  0  0  0
  4  9  2  0  0  0
  5  8  2  0  0  0
  6 12  2  0  0  0
  7 11  2  0  0  0
 13 23  2  0  0  0
 26 24  2  0  0  0
 26 25  2  0  0  0
M  CHG  1  22  -1
M  END
> <rmsd>
0.707158148

$$$$
ZINC33253661


 26 27  0  0  0  0  0  0  0  0999 V2000
   -0.1068    2.5018   -1.5743 C   0  0  0  0  0
    0.8687    2.5248   -2.5709 C   0  0  0  0  0
    0.8581    0.4770   -0.6763 C   0  0  0  0  0
   -3.3065   -3.1215   -0.7182 C   0  0  0  0  0
   -3.3760   -1.1947    0.7375 C   0  0  0  0  0
   -2.7427   -0.9358   -1.5796 C   0  0  0  0  0
    1.8337    0.5000   -1.6730 C   0  0  0  0  0
   -3.5406   -2.5655    0.5394 C   0  0  0  0  0
   -2.9075   -2.3068   -1.7777 C   0  0  0  0  0
   -0.1122    1.4780   -0.6269 C   0  0  0  0  0
    1.8391    1.5239   -2.6203 C   0  0  0  0  0
   -2.9769   -0.3798   -0.3220 C   0  0  0  0  0
    2.8488   -0.5698   -1.7024 C   0  0  0  0  0
   -3.9671   -3.4367    1.6721 C   0  0  0  0  0
   -2.6570   -2.9014   -3.1222 C   0  0  0  0  0
    3.9024    3.7328   -3.6474 C   0  0  0  0  0
    1.8979    1.7882   -5.8702 C   0  0  0  0  0
    4.0659    2.2676   -3.4255 C   0  0  0  0  0
    2.5891    0.8917   -4.9001 C   0  0  0  0  0
   -1.1115    1.4543    0.3925 N   0  0  0  0  0
    2.8178    1.5645   -3.6382 N   0  0  0  0  0
    2.6044   -1.6331   -2.3839 O   0  0  0  0  0
    3.9417   -0.4011   -1.0451 O   0  0  0  0  0
   -3.5972    1.7232    1.0630 O   0  0  0  0  0
   -2.9650    2.0182   -1.3480 O   0  0  0  0  0
   -2.7680    1.3597   -0.0709 S   0  0  0  0  0
  1 10  1  0  0  0
  2 11  1  0  0  0
  3  7  1  0  0  0
  4  8  1  0  0  0
  5 12  1  0  0  0
  6  9  1  0  0  0
  7 13  1  0  0  0
 10 20  1  0  0  0
 11 21  1  0  0  0
 13 22  1  0  0  0
 14  8  1  0  0  0
 15  9  1  0  0  0
 16 18  1  0  0  0
 17 19  1  0  0  0
 18 21  1  0  0  0
 19 21  1  0  0  0
 26 12  1  0  0  0
 26 20  1  0  0  0
  1  2  2  0  0  0
  3 10  2  0  0  0
  4  9  2  0  0  0
  5  8  2  0  0  0
  6 12  2  0  0  0
  7 11  2  0  0  0
 13 23  2  0  0  0
 26 24  2  0  0  0
 26 25  2  0  0  0
M  CHG  1  22  -1
M  END
> <rmsd>
0.525952995

$$$$
ZINC32962258


 26 27  0  0  0  0  0  0  0  0999 V2000
   -2.4219   -2.2334   -1.8198 C   0  0  0  0  0
   -3.2379   -2.5889    0.4262 C   0  0  0  0  0
   -0.0681    2.7418   -1.3422 C   0  0  0  0  0
    0.9803    2.8475   -2.2562 C   0  0  0  0  0
   -2.3865   -0.8582   -1.5892 C   0  0  0  0  0
   -3.2024   -1.2137    0.6569 C   0  0  0  0  0
    0.9949    0.8146   -0.3458 C   0  0  0  0  0
    2.0432    0.9203   -1.2598 C   0  0  0  0  0
   -2.8478   -3.0988   -0.8121 C   0  0  0  0  0
   -0.0608    1.7254   -0.3870 C   0  0  0  0  0
    2.0360    1.9367   -2.2151 C   0  0  0  0  0
   -2.7766   -0.3483   -0.3509 C   0  0  0  0  0
    3.1478   -0.0551   -1.1943 C   0  0  0  0  0
   -1.4730   -5.1217   -1.4153 C   0  0  0  0  0
   -3.8413   -4.9182   -2.2437 C   0  0  0  0  0
   -3.3835   -5.4386    0.1440 C   0  0  0  0  0
    4.2469    2.8724   -2.8445 C   0  0  0  0  0
    3.0237    1.3646   -4.4189 C   0  0  0  0  0
   -2.8891   -4.6147   -1.0666 C   0  0  0  0  0
   -1.1423    1.6162    0.5547 N   0  0  0  0  0
    3.0875    2.0602   -3.1503 N   0  0  0  0  0
    3.0552   -1.1387   -1.8814 O   0  0  0  0  0
    4.1638    0.2128   -0.4521 O   0  0  0  0  0
   -3.6817    1.6684    1.0053 O   0  0  0  0  0
   -2.8725    2.0643   -1.3374 O   0  0  0  0  0
   -2.7326    1.3729   -0.0616 S   0  0  0  0  0
  1  9  1  0  0  0
  2  6  1  0  0  0
  3 10  1  0  0  0
  4 11  1  0  0  0
  5 12  1  0  0  0
  7  8  1  0  0  0
  8 13  1  0  0  0
 10 20  1  0  0  0
 11 21  1  0  0  0
 13 22  1  0  0  0
 14 19  1  0  0  0
 15 19  1  0  0  0
 16 19  1  0  0  0
 17 21  1  0  0  0
 18 21  1  0  0  0
 19  9  1  0  0  0
 26 12  1  0  0  0
 26 20  1  0  0  0
  1  5  2  0  0  0
  2  9  2  0  0  0
  3  4  2  0  0  0
  6 12  2  0  0  0
  7 10  2  0  0  0
  8 11  2  0  0  0
 13 23  2  0  0  0
 26 24  2  0  0  0
 26 25  2  0  0  0
M  CHG  1  22  -1
M  END
> <rmsd>
0.710927486

$$$$
ZINC32962258


 26 27  0  0  0  0  0  0  0  0999 V2000
   -2.9084   -2.3068   -1.7805 C   0  0  0  0  0
   -3.5411   -2.5658    0.5367 C   0  0  0  0  0
   -0.1350    2.4684   -1.6188 C   0  0  0  0  0
    0.8305    2.4773   -2.6255 C   0  0  0  0  0
   -2.7435   -0.9361   -1.5822 C   0  0  0  0  0
   -3.3760   -1.1951    0.7351 C   0  0  0  0  0
    0.8591    0.4751   -0.6831 C   0  0  0  0  0
    1.8244    0.4839   -1.6898 C   0  0  0  0  0
   -3.3074   -3.1218   -0.7210 C   0  0  0  0  0
   -0.1206    1.4674   -0.6475 C   0  0  0  0  0
    1.8102    1.4850   -2.6610 C   0  0  0  0  0
   -2.9772   -0.3801   -0.3245 C   0  0  0  0  0
    2.8498   -0.5763   -1.7042 C   0  0  0  0  0
   -2.1578   -5.2566   -1.4043 C   0  0  0  0  0
   -4.5684   -4.8739   -2.0198 C   0  0  0  0  0
   -3.9366   -5.3980    0.3271 C   0  0  0  0  0
    4.0213    2.2312   -3.5061 C   0  0  0  0  0
    2.5440    0.8063   -4.9328 C   0  0  0  0  0
   -3.4915   -4.6326   -0.9398 C   0  0  0  0  0
   -1.1167    1.4581    0.3898 N   0  0  0  0  0
    2.7783    1.5111   -3.6896 N   0  0  0  0  0
    2.6094   -1.6578   -2.3578 O   0  0  0  0  0
    3.9474   -0.3813   -1.0622 O   0  0  0  0  0
   -3.5922    1.7207    1.0663 O   0  0  0  0  0
   -2.9718    2.0191   -1.3474 O   0  0  0  0  0
   -2.7710    1.3356   -0.0755 S   0  0  0  0  0
  1  9  1  0  0  0
  2  6  1  0  0  0
  3 10  1  0  0  0
  4 11  1  0  0  0
  5 12  1  0  0  0
  7  8  1  0  0  0
  8 13  1  0  0  0
 10 20  1  0  0  0
 11 21  1  0  0  0
 13 22  1  0  0  0
 14 19  1  0  0  0
 15 19  1  0  0  0
 16 19  1  0  0  0
 17 21  1  0  0  0
 18 21  1  0  0  0
 19  9  1  0  0  0
 26 12  1  0  0  0
 26 20  1  0  0  0
  1  5  2  0  0  0
  2  9  2  0  0  0
  3  4  2  0  0  0
  6 12  2  0  0  0
  7 10  2  0  0  0
  8 11  2  0  0  0
 13 23  2  0  0  0
 26 24  2  0  0  0
 26 25  2  0  0  0
M  CHG  1  22  -1
M  END
> <rmsd>
0.527400196

$$$$
ZINC10342330


 25 26  0  0  0  0  0  0  0  0999 V2000
    0.7317    2.4826   -2.6919 C   0  0  0  0  0
   -0.1721    2.4768   -1.6295 C   0  0  0  0  0
    1.5713    1.3881   -2.8993 C   0  0  0  0  0
   -3.7412   -2.5304    0.6091 C   0  0  0  0  0
   -3.2441   -2.2930   -1.7432 C   0  0  0  0  0
   -3.5102   -1.1674    0.7954 C   0  0  0  0  0
   -3.0131   -0.9300   -1.5569 C   0  0  0  0  0
    0.6034    0.2822   -0.9817 C   0  0  0  0  0
   -0.2363    1.3767   -0.7744 C   0  0  0  0  0
    1.5072    0.2880   -2.0442 C   0  0  0  0  0
   -3.6080   -3.0931   -0.6603 C   0  0  0  0  0
   -3.1463   -0.3673   -0.2875 C   0  0  0  0  0
    0.5300   -0.8964   -0.0603 C   0  0  0  0  0
   -3.5645   -5.3065    0.2407 C   0  0  0  0  0
   -1.1708    1.3923    0.3084 N   0  0  0  0  0
    2.3744   -0.8154   -2.2762 N   0  0  0  0  0
    3.5014   -0.8257   -1.7274 O   0  0  0  0  0
    1.9856   -1.7447   -3.0223 O   0  0  0  0  0
   -3.5950    1.7556    1.1330 O   0  0  0  0  0
   -3.1056    2.0305   -1.3133 O   0  0  0  0  0
   -3.8336   -4.4229   -0.8421 O   0  0  0  0  0
   -2.5655   -4.8341    1.0161 F   0  0  0  0  0
   -3.1745   -6.5013   -0.2585 F   0  0  0  0  0
   -4.6698   -5.5092    0.9887 F   0  0  0  0  0
   -2.8541    1.3622   -0.0509 S   0  0  0  0  0
  1  2  1  0  0  0
  3 10  1  0  0  0
  4 11  1  0  0  0
  5  7  1  0  0  0
  6 12  1  0  0  0
  8  9  1  0  0  0
  9 15  1  0  0  0
 10 16  1  0  0  0
 11 21  1  0  0  0
 13  8  1  0  0  0
 14 21  1  0  0  0
 14 22  1  0  0  0
 14 23  1  0  0  0
 14 24  1  0  0  0
 16 17  1  0  0  0
 25 12  1  0  0  0
 25 15  1  0  0  0
  1  3  2  0  0  0
  2  9  2  0  0  0
  4  6  2  0  0  0
  5 11  2  0  0  0
  7 12  2  0  0  0
  8 10  2  0  0  0
 16 18  2  0  0  0
 25 19  2  0  0  0
 25 20  2  0  0  0
M  CHG  2  16   1  17  -1
M  END
> <rmsd>
0.391708493

$$$$
ZINC07052357


 25 26  0  0  0  0  0  0  0  0999 V2000
   -2.8713   -2.3806   -1.5993 C   0  0  0  0  0
   -3.7333   -2.5139    0.6537 C   0  0  0  0  0
    2.0305    1.2222   -2.1647 C   0  0  0  0  0
    1.1795    2.3272   -2.1828 C   0  0  0  0  0
   -2.6864   -1.0064   -1.4473 C   0  0  0  0  0
   -3.5484   -1.1398    0.8058 C   0  0  0  0  0
    0.7532    0.2681   -0.3495 C   0  0  0  0  0
   -3.3949   -3.1343   -0.5489 C   0  0  0  0  0
   -0.0978    1.3731   -0.3675 C   0  0  0  0  0
    1.8174    0.1926   -1.2480 C   0  0  0  0  0
    0.1153    2.4027   -1.2842 C   0  0  0  0  0
   -3.0250   -0.3860   -0.2448 C   0  0  0  0  0
   -0.3466    4.5982   -0.4956 C   0  0  0  0  0
   -3.5947   -4.6031   -0.7117 C   0  0  0  0  0
   -1.1898    1.4376    0.5662 N   0  0  0  0  0
    2.6835   -0.9325   -1.2301 N   0  0  0  0  0
    3.6345   -0.9808   -2.0472 O   0  0  0  0  0
    2.4745   -1.8475   -0.3973 O   0  0  0  0  0
   -3.7106    1.7929    0.9834 O   0  0  0  0  0
   -2.8503    1.9613   -1.3685 O   0  0  0  0  0
   -0.7056    3.4901   -1.3181 O   0  0  0  0  0
   -3.2225   -5.0736   -1.9391 F   0  0  0  0  0
   -2.8899   -5.3538    0.1857 F   0  0  0  0  0
   -4.8985   -4.9762   -0.5570 F   0  0  0  0  0
   -2.7939    1.3340   -0.0537 S   0  0  0  0  0
  1  8  1  0  0  0
  2  6  1  0  0  0
  3 10  1  0  0  0
  4 11  1  0  0  0
  5 12  1  0  0  0
  7  9  1  0  0  0
  9 15  1  0  0  0
 10 16  1  0  0  0
 11 21  1  0  0  0
 13 21  1  0  0  0
 14  8  1  0  0  0
 14 22  1  0  0  0
 14 23  1  0  0  0
 14 24  1  0  0  0
 16 17  1  0  0  0
 25 12  1  0  0  0
 25 15  1  0  0  0
  1  5  2  0  0  0
  2  8  2  0  0  0
  3  4  2  0  0  0
  6 12  2  0  0  0
  7 10  2  0  0  0
  9 11  2  0  0  0
 16 18  2  0  0  0
 25 19  2  0  0  0
 25 20  2  0  0  0
M  CHG  2  16   1  17  -1
M  END
> <rmsd>
0.4274728

$$$$
ZINC10342330


 25 26  0  0  0  0  0  0  0  0999 V2000
    0.7319    2.4824   -2.6919 C   0  0  0  0  0
   -0.1719    2.4766   -1.6295 C   0  0  0  0  0
    1.5715    1.3879   -2.8993 C   0  0  0  0  0
   -3.7410   -2.5306    0.6091 C   0  0  0  0  0
   -3.2438   -2.2932   -1.7432 C   0  0  0  0  0
   -3.5100   -1.1676    0.7954 C   0  0  0  0  0
   -3.0129   -0.9302   -1.5569 C   0  0  0  0  0
    0.6036    0.2820   -0.9817 C   0  0  0  0  0
   -0.2361    1.3765   -0.7743 C   0  0  0  0  0
    1.5074    0.2878   -2.0442 C   0  0  0  0  0
   -3.6078   -3.0933   -0.6603 C   0  0  0  0  0
   -3.1461   -0.3675   -0.2875 C   0  0  0  0  0
    0.5302   -0.8966   -0.0602 C   0  0  0  0  0
   -5.1212   -4.9381   -0.5227 C   0  0  0  0  0
   -1.1706    1.3921    0.3084 N   0  0  0  0  0
    2.3746   -0.8156   -2.2762 N   0  0  0  0  0
    3.5016   -0.8259   -1.7274 O   0  0  0  0  0
    1.9858   -1.7449   -3.0223 O   0  0  0  0  0
   -3.5948    1.7554    1.1331 O   0  0  0  0  0
   -3.1054    2.0303   -1.3133 O   0  0  0  0  0
   -3.8334   -4.4231   -0.8421 O   0  0  0  0  0
   -6.0774   -4.0029   -0.7059 F   0  0  0  0  0
   -5.1354   -5.2983    0.7808 F   0  0  0  0  0
   -5.4032   -6.0333   -1.2597 F   0  0  0  0  0
   -2.8538    1.3620   -0.0509 S   0  0  0  0  0
  1  2  1  0  0  0
  3 10  1  0  0  0
  4 11  1  0  0  0
  5  7  1  0  0  0
  6 12  1  0  0  0
  8  9  1  0  0  0
  9 15  1  0  0  0
 10 16  1  0  0  0
 11 21  1  0  0  0
 13  8  1  0  0  0
 14 21  1  0  0  0
 14 22  1  0  0  0
 14 23  1  0  0  0
 14 24  1  0  0  0
 16 17  1  0  0  0
 25 12  1  0  0  0
 25 15  1  0  0  0
  1  3  2  0  0  0
  2  9  2  0  0  0
  4  6  2  0  0  0
  5 11  2  0  0  0
  7 12  2  0  0  0
  8 10  2  0  0  0
 16 18  2  0  0  0
 25 19  2  0  0  0
 25 20  2  0  0  0
M  CHG  2  16   1  17  -1
M  END
> <rmsd>
0.391708463

$$$$
ZINC10342330


 25 26  0  0  0  0  0  0  0  0999 V2000
    0.7318    2.4832   -2.6913 C   0  0  0  0  0
   -0.1720    2.4773   -1.6290 C   0  0  0  0  0
    1.5714    1.3887   -2.8988 C   0  0  0  0  0
   -3.2421   -2.2921   -1.7440 C   0  0  0  0  0
   -3.7397   -2.5308    0.6082 C   0  0  0  0  0
   -3.0126   -0.9290   -1.5572 C   0  0  0  0  0
   -3.5100   -1.1676    0.7950 C   0  0  0  0  0
    0.6033    0.2826   -0.9815 C   0  0  0  0  0
   -0.2363    1.3770   -0.7740 C   0  0  0  0  0
    1.5071    0.2885   -2.0439 C   0  0  0  0  0
   -3.6057   -3.0930   -0.6613 C   0  0  0  0  0
   -3.1465   -0.3668   -0.2877 C   0  0  0  0  0
    0.5297   -0.8962   -0.0602 C   0  0  0  0  0
   -3.1120   -5.0920   -1.8747 C   0  0  0  0  0
   -1.1709    1.3926    0.3087 N   0  0  0  0  0
    2.3743   -0.8149   -2.2760 N   0  0  0  0  0
    3.5013   -0.8255   -1.7271 O   0  0  0  0  0
    1.9855   -1.7441   -3.0223 O   0  0  0  0  0
   -3.5952    1.7559    1.1332 O   0  0  0  0  0
   -3.1056    2.0311   -1.3131 O   0  0  0  0  0
   -3.8295   -4.4230   -0.8436 O   0  0  0  0  0
   -1.9067   -4.5192   -2.0779 F   0  0  0  0  0
   -3.8161   -5.0002   -3.0258 F   0  0  0  0  0
   -2.9553   -6.4016   -1.5867 F   0  0  0  0  0
   -2.8542    1.3627   -0.0508 S   0  0  0  0  0
  1  2  1  0  0  0
  3 10  1  0  0  0
  4 11  1  0  0  0
  5  7  1  0  0  0
  6 12  1  0  0  0
  8  9  1  0  0  0
  9 15  1  0  0  0
 10 16  1  0  0  0
 11 21  1  0  0  0
 13  8  1  0  0  0
 14 21  1  0  0  0
 14 22  1  0  0  0
 14 23  1  0  0  0
 14 24  1  0  0  0
 16 17  1  0  0  0
 25 12  1  0  0  0
 25 15  1  0  0  0
  1  3  2  0  0  0
  2  9  2  0  0  0
  4  6  2  0  0  0
  5 11  2  0  0  0
  7 12  2  0  0  0
  8 10  2  0  0  0
 16 18  2  0  0  0
 25 19  2  0  0  0
 25 20  2  0  0  0
M  CHG  2  16   1  17  -1
M  END
> <rmsd>
0.392051458

$$$$
ZINC02934290


 26 27  0  0  0  0  0  0  0  0999 V2000
   -2.9120   -2.3110   -1.7701 C   0  0  0  0  0
   -3.5511   -2.5638    0.5462 C   0  0  0  0  0
   -2.7446   -0.9402   -1.5744 C   0  0  0  0  0
   -3.3836   -1.1928    0.7419 C   0  0  0  0  0
    1.8467    1.5091   -2.6087 C   0  0  0  0  0
   -0.1016    2.4916   -1.5715 C   0  0  0  0  0
    0.8581    0.4679   -0.6656 C   0  0  0  0  0
    0.8773    2.5111   -2.5649 C   0  0  0  0  0
    1.8370    0.4875   -1.6590 C   0  0  0  0  0
   -3.3152   -3.1229   -0.7098 C   0  0  0  0  0
   -0.1112    1.4700   -0.6218 C   0  0  0  0  0
   -2.9804   -0.3811   -0.3184 C   0  0  0  0  0
    0.8876    3.5892   -3.5671 C   0  0  0  0  0
    2.8600   -0.5701   -1.7054 C   0  0  0  0  0
   -3.2947   -5.2295   -2.0831 C   0  0  0  0  0
   -3.5807   -6.6960   -1.8783 C   0  0  0  0  0
   -3.4825   -4.4940   -0.9052 N   0  0  0  0  0
   -1.1126    1.4507    0.3959 N   0  0  0  0  0
   -0.0188    4.5020   -3.5047 O   0  0  0  0  0
    2.8288   -1.5016   -0.8167 O   0  0  0  0  0
    1.8022    3.5839   -4.4736 O   0  0  0  0  0
    3.7524   -0.5286   -2.6329 O   0  0  0  0  0
   -2.9406   -4.8054   -3.1785 O   0  0  0  0  0
   -3.5990    1.7262    1.0609 O   0  0  0  0  0
   -2.9615    2.0146   -1.3495 O   0  0  0  0  0
   -2.7683    1.3585   -0.0706 S   0  0  0  0  0
  1 10  1  0  0  0
  2  4  1  0  0  0
  3 12  1  0  0  0
  5  8  1  0  0  0
  6 11  1  0  0  0
  7  9  1  0  0  0
  8 13  1  0  0  0
  9 14  1  0  0  0
 10 17  1  0  0  0
 11 18  1  0  0  0
 13 19  1  0  0  0
 14 20  1  0  0  0
 15 17  1  0  0  0
 16 15  1  0  0  0
 26 12  1  0  0  0
 26 18  1  0  0  0
  1  3  2  0  0  0
  2 10  2  0  0  0
  4 12  2  0  0  0
  5  9  2  0  0  0
  6  8  2  0  0  0
  7 11  2  0  0  0
 13 21  2  0  0  0
 14 22  2  0  0  0
 15 23  2  0  0  0
 26 24  2  0  0  0
 26 25  2  0  0  0
M  CHG  2  19  -1  20  -1
M  END
> <rmsd>
0.518950641

$$$$
ZINC02934290


 26 27  0  0  0  0  0  0  0  0999 V2000
   -3.5508   -2.5636    0.5455 C   0  0  0  0  0
   -2.9115   -2.3114   -1.7706 C   0  0  0  0  0
   -3.3838   -1.1926    0.7410 C   0  0  0  0  0
   -2.7446   -0.9403   -1.5753 C   0  0  0  0  0
    1.8470    1.5092   -2.6083 C   0  0  0  0  0
   -0.1013    2.4916   -1.5710 C   0  0  0  0  0
    0.8580    0.4675   -0.6657 C   0  0  0  0  0
    0.8777    2.5114   -2.5643 C   0  0  0  0  0
    1.8370    0.4873   -1.6590 C   0  0  0  0  0
   -3.3147   -3.1230   -0.7103 C   0  0  0  0  0
   -0.1112    1.4697   -0.6217 C   0  0  0  0  0
   -2.9808   -0.3810   -0.3195 C   0  0  0  0  0
    0.8883    3.5898   -3.5661 C   0  0  0  0  0
    2.8599   -0.5704   -1.7057 C   0  0  0  0  0
   -3.8772   -5.4599    0.0291 C   0  0  0  0  0
   -3.9381   -6.8376   -0.5813 C   0  0  0  0  0
   -3.4818   -4.4942   -0.9061 N   0  0  0  0  0
   -1.1127    1.4502    0.3958 N   0  0  0  0  0
   -0.0179    4.5027   -3.5035 O   0  0  0  0  0
    2.8284   -1.5022   -0.8172 O   0  0  0  0  0
    1.8031    3.5847   -4.4725 O   0  0  0  0  0
    3.7524   -0.5288   -2.6330 O   0  0  0  0  0
   -4.1582   -5.2832    1.2102 O   0  0  0  0  0
   -3.5992    1.7258    1.0605 O   0  0  0  0  0
   -2.9613    2.0150   -1.3497 O   0  0  0  0  0
   -2.7684    1.3584   -0.0710 S   0  0  0  0  0
  1 10  1  0  0  0
  2  4  1  0  0  0
  3 12  1  0  0  0
  5  8  1  0  0  0
  6 11  1  0  0  0
  7  9  1  0  0  0
  8 13  1  0  0  0
  9 14  1  0  0  0
 10 17  1  0  0  0
 11 18  1  0  0  0
 13 19  1  0  0  0
 14 20  1  0  0  0
 15 17  1  0  0  0
 16 15  1  0  0  0
 26 12  1  0  0  0
 26 18  1  0  0  0
  1  3  2  0  0  0
  2 10  2  0  0  0
  4 12  2  0  0  0
  5  9  2  0  0  0
  6  8  2  0  0  0
  7 11  2  0  0  0
 13 21  2  0  0  0
 14 22  2  0  0  0
 15 23  2  0  0  0
 26 24  2  0  0  0
 26 25  2  0  0  0
M  CHG  2  19  -1  20  -1
M  END
> <rmsd>
0.519203365

$$$$
ZINC13050421


 28 31  0  0  0  0  0  0  0  0999 V2000
    7.7276   -1.1530    3.7496 C   0  0  0  0  0
    6.8629   -0.5198    4.6374 C   0  0  0  0  0
   -3.4416   -2.2364   -0.3086 C   0  0  0  0  0
   -4.6076   -1.9430    0.3942 C   0  0  0  0  0
    7.4784   -1.1051    2.3777 C   0  0  0  0  0
    5.7456    0.1636    4.1567 C   0  0  0  0  0
   -2.5250   -1.2237   -0.5936 C   0  0  0  0  0
   -4.8564   -0.6381    0.8166 C   0  0  0  0  0
    6.0923   -0.3633    0.4985 C   0  0  0  0  0
    4.3595    0.9054    2.2776 C   0  0  0  0  0
    6.3586   -0.4218    1.8762 C   0  0  0  0  0
    5.4792    0.2221    2.7790 C   0  0  0  0  0
    4.9751    0.3201    0.0179 C   0  0  0  0  0
   -2.7639    0.0945   -0.1759 C   0  0  0  0  0
   -3.9341    0.3763    0.5436 C   0  0  0  0  0
    4.1103    0.9533    0.9057 C   0  0  0  0  0
    4.7256    0.3618   -1.4345 C   0  0  0  0  0
    0.6753    1.4565   -0.1337 C   0  0  0  0  0
   -2.4068    2.5554   -0.3048 C   0  0  0  0  0
   -3.2040    2.5793    0.9921 C   0  0  0  0  0
   -1.7710    1.1795   -0.5015 C   0  0  0  0  0
    1.7433    1.1848    0.9041 C   0  0  0  0  0
   -0.5743    1.0379    0.2960 N   0  0  0  0  0
    4.0093   -0.5663   -1.9648 O   0  0  0  0  0
    5.2332    1.3247   -2.1207 O   0  0  0  0  0
    0.9189    1.9858   -1.2146 O   0  0  0  0  0
   -4.2733    1.6294    0.9851 O   0  0  0  0  0
    3.0038    1.6310    0.4509 O   0  0  0  0  0
  1  2  1  0  0  0
  3  7  1  0  0  0
  4  8  1  0  0  0
  5 11  1  0  0  0
  6 12  1  0  0  0
  9 11  1  0  0  0
 10 12  1  0  0  0
 13 16  1  0  0  0
 13 17  1  0  0  0
 14 15  1  0  0  0
 15 27  1  0  0  0
 16 28  1  0  0  0
 17 24  1  0  0  0
 18 23  1  0  0  0
 19 20  1  0  0  0
 19 21  1  0  0  0
 20 27  1  0  0  0
 21 14  1  0  0  0
 21 23  1  0  0  0
 22 18  1  0  0  0
 22 28  1  0  0  0
  1  5  2  0  0  0
  2  6  2  0  0  0
  3  4  2  0  0  0
  7 14  2  0  0  0
  8 15  2  0  0  0
  9 13  2  0  0  0
 10 16  2  0  0  0
 11 12  2  0  0  0
 17 25  2  0  0  0
 18 26  2  0  0  0
M  CHG  1  24  -1
M  END
> <rmsd>
0.580803156

$$$$
ZINC13050421


 28 31  0  0  0  0  0  0  0  0999 V2000
    0.9273   -5.4356    0.8361 C   0  0  0  0  0
    0.5174   -4.9389    2.0699 C   0  0  0  0  0
   -3.1469   -2.3073   -0.0378 C   0  0  0  0  0
   -4.4216   -2.0221    0.4451 C   0  0  0  0  0
    1.6165   -4.6120   -0.0544 C   0  0  0  0  0
    0.7951   -3.6166    2.4178 C   0  0  0  0  0
   -2.2432   -1.2713   -0.2767 C   0  0  0  0  0
   -4.7928   -0.7018    0.6941 C   0  0  0  0  0
    2.5973   -2.4354   -0.6049 C   0  0  0  0  0
    1.7759   -1.4400    1.8674 C   0  0  0  0  0
    1.9047   -3.2785    0.2791 C   0  0  0  0  0
    1.4877   -2.7734    1.5338 C   0  0  0  0  0
    2.8750   -1.1131   -0.2570 C   0  0  0  0  0
   -2.6044    0.0625   -0.0321 C   0  0  0  0  0
   -3.8854    0.3374    0.4677 C   0  0  0  0  0
    2.4651   -0.6164    0.9767 C   0  0  0  0  0
    3.6043   -0.2556   -1.2088 C   0  0  0  0  0
    0.7197    1.6261    0.4042 C   0  0  0  0  0
   -2.3425    2.5187   -0.3457 C   0  0  0  0  0
   -3.3356    2.6115    0.8046 C   0  0  0  0  0
   -1.6223    1.1712   -0.3062 C   0  0  0  0  0
    1.6207    1.5131    1.6154 C   0  0  0  0  0
   -0.5621    1.1737    0.6757 N   0  0  0  0  0
    3.9653   -0.7550   -2.3385 O   0  0  0  0  0
    3.8547    0.9620   -0.8763 O   0  0  0  0  0
    1.1077    2.0696   -0.6732 O   0  0  0  0  0
   -4.3464    1.6025    0.7266 O   0  0  0  0  0
    2.7289    0.6840    1.3369 O   0  0  0  0  0
  1  2  1  0  0  0
  3  7  1  0  0  0
  4  8  1  0  0  0
  5 11  1  0  0  0
  6 12  1  0  0  0
  9 11  1  0  0  0
 10 12  1  0  0  0
 13 16  1  0  0  0
 13 17  1  0  0  0
 14 15  1  0  0  0
 15 27  1  0  0  0
 16 28  1  0  0  0
 17 24  1  0  0  0
 18 23  1  0  0  0
 19 20  1  0  0  0
 19 21  1  0  0  0
 20 27  1  0  0  0
 21 14  1  0  0  0
 21 23  1  0  0  0
 22 18  1  0  0  0
 22 28  1  0  0  0
  1  5  2  0  0  0
  2  6  2  0  0  0
  3  4  2  0  0  0
  7 14  2  0  0  0
  8 15  2  0  0  0
  9 13  2  0  0  0
 10 16  2  0  0  0
 11 12  2  0  0  0
 17 25  2  0  0  0
 18 26  2  0  0  0
M  CHG  1  24  -1
M  END
> <rmsd>
0.61604321

$$$$
ZINC64843435


 26 28  0  0  0  0  0  0  0  0999 V2000
   -2.8757   -3.1080   -0.8022 C   0  0  0  0  0
   -2.9496   -2.2110   -1.8679 C   0  0  0  0  0
   -2.7566   -2.6316    0.5033 C   0  0  0  0  0
   -2.9042   -0.8376   -1.6280 C   0  0  0  0  0
    1.0028    0.7871   -0.3126 C   0  0  0  0  0
    0.0028    2.7131   -1.2859 C   0  0  0  0  0
    2.0525    0.9132   -1.2159 C   0  0  0  0  0
   -2.7111   -1.2583    0.7433 C   0  0  0  0  0
   -0.0454    1.7002   -0.3417 C   0  0  0  0  0
   -2.7850   -0.3613   -0.3224 C   0  0  0  0  0
    2.0066    1.9612   -2.1211 C   0  0  0  0  0
    3.1617   -0.0555   -1.1831 C   0  0  0  0  0
    4.2143    2.9144   -2.6435 C   0  0  0  0  0
    2.7901    2.0381   -4.4737 C   0  0  0  0  0
    5.4230    2.5370   -3.4921 C   0  0  0  0  0
    4.0750    1.7079   -5.2251 C   0  0  0  0  0
   -2.5819   -0.7808    2.1529 C   0  0  0  0  0
    1.0053    2.8677   -2.1795 N   0  0  0  0  0
    3.0590    2.0942   -3.0327 N   0  0  0  0  0
   -1.1351    1.5972    0.5708 N   0  0  0  0  0
    3.0751   -1.1197   -1.9022 O   0  0  0  0  0
    4.1798    0.1950   -0.4363 O   0  0  0  0  0
   -3.6904    1.6841    0.9901 O   0  0  0  0  0
   -2.8432    2.0370   -1.3460 O   0  0  0  0  0
    5.1070    2.6317   -4.8809 O   0  0  0  0  0
   -2.7280    1.3873   -0.0545 S   0  0  0  0  0
  1  2  1  0  0  0
  3  8  1  0  0  0
  4 10  1  0  0  0
  5  9  1  0  0  0
  6 18  1  0  0  0
  7 11  1  0  0  0
  7 12  1  0  0  0
  9 20  1  0  0  0
 11 19  1  0  0  0
 12 21  1  0  0  0
 13 15  1  0  0  0
 13 19  1  0  0  0
 14 16  1  0  0  0
 14 19  1  0  0  0
 15 25  1  0  0  0
 16 25  1  0  0  0
 17  8  1  0  0  0
 26 10  1  0  0  0
 26 20  1  0  0  0
  1  3  2  0  0  0
  2  4  2  0  0  0
  5  7  2  0  0  0
  6  9  2  0  0  0
  8 10  2  0  0  0
 11 18  2  0  0  0
 12 22  2  0  0  0
 26 23  2  0  0  0
 26 24  2  0  0  0
M  CHG  1  21  -1
M  END
> <rmsd>
0.692797244

$$$$
ZINC64843435


 26 28  0  0  0  0  0  0  0  0999 V2000
   -3.3294   -3.1272   -0.7165 C   0  0  0  0  0
   -3.4334   -2.2393   -1.7872 C   0  0  0  0  0
   -3.0522   -2.6471    0.5634 C   0  0  0  0  0
   -3.2599   -0.8711   -1.5780 C   0  0  0  0  0
    0.8668    0.4565   -0.6597 C   0  0  0  0  0
   -0.0684    2.4440   -1.5718 C   0  0  0  0  0
    1.8338    0.4896   -1.6584 C   0  0  0  0  0
   -2.8786   -1.2790    0.7727 C   0  0  0  0  0
   -0.1060    1.4487   -0.6087 C   0  0  0  0  0
   -2.9826   -0.3910   -0.2980 C   0  0  0  0  0
    1.7844    1.5277   -2.5747 C   0  0  0  0  0
    2.8632   -0.5627   -1.7104 C   0  0  0  0  0
    4.0004    2.2988   -3.3165 C   0  0  0  0  0
    2.3478    1.5165   -4.9907 C   0  0  0  0  0
    5.0916    1.8180   -4.2661 C   0  0  0  0  0
    3.5273    1.0779   -5.8514 C   0  0  0  0  0
   -2.5816   -0.7973    2.1553 C   0  0  0  0  0
    0.8549    2.5094   -2.5570 N   0  0  0  0  0
    2.7539    1.5675   -3.5820 N   0  0  0  0  0
   -1.1102    1.4418    0.4025 N   0  0  0  0  0
    2.6278   -1.6249   -2.3986 O   0  0  0  0  0
    3.9631   -0.3846   -1.0657 O   0  0  0  0  0
   -3.6007    1.7338    1.0545 O   0  0  0  0  0
   -2.9512    1.9928   -1.3560 O   0  0  0  0  0
    4.6552    1.9216   -5.6213 O   0  0  0  0  0
   -2.7660    1.3507   -0.0689 S   0  0  0  0  0
  1  2  1  0  0  0
  3  8  1  0  0  0
  4 10  1  0  0  0
  5  9  1  0  0  0
  6 18  1  0  0  0
  7 11  1  0  0  0
  7 12  1  0  0  0
  9 20  1  0  0  0
 11 19  1  0  0  0
 12 21  1  0  0  0
 13 15  1  0  0  0
 13 19  1  0  0  0
 14 16  1  0  0  0
 14 19  1  0  0  0
 15 25  1  0  0  0
 16 25  1  0  0  0
 17  8  1  0  0  0
 26 10  1  0  0  0
 26 20  1  0  0  0
  1  3  2  0  0  0
  2  4  2  0  0  0
  5  7  2  0  0  0
  6  9  2  0  0  0
  8 10  2  0  0  0
 11 18  2  0  0  0
 12 22  2  0  0  0
 26 23  2  0  0  0
 26 24  2  0  0  0
M  CHG  1  21  -1
M  END
> <rmsd>
0.512944043

$$$$
ZINC64843437


 26 28  0  0  0  0  0  0  0  0999 V2000
   -3.2797   -2.5840    0.4534 C   0  0  0  0  0
   -2.8806   -3.1082   -0.7759 C   0  0  0  0  0
   -3.2325   -1.2073    0.6732 C   0  0  0  0  0
    1.0045    0.7851   -0.3087 C   0  0  0  0  0
   -2.3864   -0.8791   -1.5659 C   0  0  0  0  0
    0.0114    2.7195   -1.2723 C   0  0  0  0  0
    2.0569    0.9146   -1.2083 C   0  0  0  0  0
   -2.4338   -2.2557   -1.7855 C   0  0  0  0  0
   -0.0417    1.7007   -0.3349 C   0  0  0  0  0
   -2.7858   -0.3549   -0.3364 C   0  0  0  0  0
    2.0159    1.9685   -2.1068 C   0  0  0  0  0
    3.1639   -0.0566   -1.1787 C   0  0  0  0  0
    4.2271    2.9202   -2.6169 C   0  0  0  0  0
    2.8061    2.0589   -4.4567 C   0  0  0  0  0
    5.4374    2.5456   -3.4646 C   0  0  0  0  0
    4.0923    1.7306   -5.2066 C   0  0  0  0  0
   -2.0055   -2.8172   -3.0994 C   0  0  0  0  0
    1.0168    2.8776   -2.1622 N   0  0  0  0  0
    3.0711    2.1051   -3.0146 N   0  0  0  0  0
   -1.1341    1.5942    0.5740 N   0  0  0  0  0
    3.0770   -1.1161   -1.9048 O   0  0  0  0  0
    4.1805    0.1868   -0.4274 O   0  0  0  0  0
   -3.6904    1.6840    0.9866 O   0  0  0  0  0
   -2.8359    2.0500   -1.3447 O   0  0  0  0  0
    5.1254    2.6499   -4.8536 O   0  0  0  0  0
   -2.7257    1.3918   -0.0571 S   0  0  0  0  0
  1  3  1  0  0  0
  2  8  1  0  0  0
  4  9  1  0  0  0
  5 10  1  0  0  0
  6 18  1  0  0  0
  7 11  1  0  0  0
  7 12  1  0  0  0
  9 20  1  0  0  0
 11 19  1  0  0  0
 12 21  1  0  0  0
 13 15  1  0  0  0
 13 19  1  0  0  0
 14 16  1  0  0  0
 14 19  1  0  0  0
 15 25  1  0  0  0
 16 25  1  0  0  0
 17  8  1  0  0  0
 26 10  1  0  0  0
 26 20  1  0  0  0
  1  2  2  0  0  0
  3 10  2  0  0  0
  4  7  2  0  0  0
  5  8  2  0  0  0
  6  9  2  0  0  0
 11 18  2  0  0  0
 12 22  2  0  0  0
 26 23  2  0  0  0
 26 24  2  0  0  0
M  CHG  1  21  -1
M  END
> <rmsd>
0.689088166

$$$$
ZINC64843437


 26 28  0  0  0  0  0  0  0  0999 V2000
   -3.5706   -2.5595    0.5597 C   0  0  0  0  0
   -3.3305   -3.1263   -0.6919 C   0  0  0  0  0
   -3.3975   -1.1884    0.7493 C   0  0  0  0  0
    0.8682    0.4570   -0.6588 C   0  0  0  0  0
   -2.7437   -0.9510   -1.5644 C   0  0  0  0  0
   -0.0602    2.4525   -1.5603 C   0  0  0  0  0
    1.8379    0.4944   -1.6547 C   0  0  0  0  0
   -2.9169   -2.3221   -1.7539 C   0  0  0  0  0
   -0.1025    1.4510   -0.6038 C   0  0  0  0  0
   -2.9840   -0.3842   -0.3127 C   0  0  0  0  0
    1.7932    1.5386   -2.5643 C   0  0  0  0  0
    2.8651   -0.5599   -1.7109 C   0  0  0  0  0
    4.0129    2.3095   -3.2952 C   0  0  0  0  0
    2.3630    1.5419   -4.9789 C   0  0  0  0  0
    5.1056    1.8325   -4.2451 C   0  0  0  0  0
    3.5438    1.1064   -5.8393 C   0  0  0  0  0
   -2.6587   -2.9292   -3.0916 C   0  0  0  0  0
    0.8660    2.5222   -2.5426 N   0  0  0  0  0
    2.7655    1.5828   -3.5688 N   0  0  0  0  0
   -1.1093    1.4397    0.4047 N   0  0  0  0  0
    2.6292   -1.6170   -2.4067 O   0  0  0  0  0
    3.9637   -0.3884   -1.0621 O   0  0  0  0  0
   -3.6009    1.7331    1.0521 O   0  0  0  0  0
   -2.9445    2.0064   -1.3550 O   0  0  0  0  0
    4.6729    1.9460   -5.6007 O   0  0  0  0  0
   -2.7641    1.3554   -0.0717 S   0  0  0  0  0
  1  3  1  0  0  0
  2  8  1  0  0  0
  4  9  1  0  0  0
  5 10  1  0  0  0
  6 18  1  0  0  0
  7 11  1  0  0  0
  7 12  1  0  0  0
  9 20  1  0  0  0
 11 19  1  0  0  0
 12 21  1  0  0  0
 13 15  1  0  0  0
 13 19  1  0  0  0
 14 16  1  0  0  0
 14 19  1  0  0  0
 15 25  1  0  0  0
 16 25  1  0  0  0
 17  8  1  0  0  0
 26 10  1  0  0  0
 26 20  1  0  0  0
  1  2  2  0  0  0
  3 10  2  0  0  0
  4  7  2  0  0  0
  5  8  2  0  0  0
  6  9  2  0  0  0
 11 18  2  0  0  0
 12 22  2  0  0  0
 26 23  2  0  0  0
 26 24  2  0  0  0
M  CHG  1  21  -1
M  END
> <rmsd>
0.51001209

$$$$
ZINC64843437


 26 28  0  0  0  0  0  0  0  0999 V2000
   -2.4337   -2.2558   -1.7866 C   0  0  0  0  0
   -2.8802   -3.1086   -0.7773 C   0  0  0  0  0
   -2.3864   -0.8791   -1.5663 C   0  0  0  0  0
    1.0046    0.7846   -0.3095 C   0  0  0  0  0
   -3.2322   -1.2084    0.6727 C   0  0  0  0  0
    0.0114    2.7188   -1.2733 C   0  0  0  0  0
    2.0569    0.9140   -1.2092 C   0  0  0  0  0
   -3.2794   -2.5850    0.4524 C   0  0  0  0  0
   -0.0416    1.7001   -0.3357 C   0  0  0  0  0
   -2.7857   -0.3555   -0.3367 C   0  0  0  0  0
    2.0158    1.9677   -2.1078 C   0  0  0  0  0
    3.1639   -0.0573   -1.1795 C   0  0  0  0  0
    4.2269    2.9194   -2.6183 C   0  0  0  0  0
    2.8059    2.0577   -4.4578 C   0  0  0  0  0
    5.4372    2.5446   -3.4660 C   0  0  0  0  0
    4.0920    1.7293   -5.2078 C   0  0  0  0  0
   -3.7583   -3.4975    1.5306 C   0  0  0  0  0
    1.0167    2.8768   -2.1633 N   0  0  0  0  0
    3.0710    2.1042   -3.0157 N   0  0  0  0  0
   -1.1340    1.5937    0.5732 N   0  0  0  0  0
    3.0770   -1.1168   -1.9054 O   0  0  0  0  0
    4.1806    0.1863   -0.4283 O   0  0  0  0  0
   -3.6903    1.6836    0.9861 O   0  0  0  0  0
   -2.8359    2.0493   -1.3454 O   0  0  0  0  0
    5.1251    2.6487   -4.8550 O   0  0  0  0  0
   -2.7256    1.3913   -0.0577 S   0  0  0  0  0
  1  3  1  0  0  0
  2  8  1  0  0  0
  4  9  1  0  0  0
  5 10  1  0  0  0
  6 18  1  0  0  0
  7 11  1  0  0  0
  7 12  1  0  0  0
  9 20  1  0  0  0
 11 19  1  0  0  0
 12 21  1  0  0  0
 13 15  1  0  0  0
 13 19  1  0  0  0
 14 16  1  0  0  0
 14 19  1  0  0  0
 15 25  1  0  0  0
 16 25  1  0  0  0
 17  8  1  0  0  0
 26 10  1  0  0  0
 26 20  1  0  0  0
  1  2  2  0  0  0
  3 10  2  0  0  0
  4  7  2  0  0  0
  5  8  2  0  0  0
  6  9  2  0  0  0
 11 18  2  0  0  0
 12 22  2  0  0  0
 26 23  2  0  0  0
 26 24  2  0  0  0
M  CHG  1  21  -1
M  END
> <rmsd>
0.689419508

$$$$
ZINC64843437


 26 28  0  0  0  0  0  0  0  0999 V2000
   -2.9169   -2.3222   -1.7550 C   0  0  0  0  0
   -3.3303   -3.1268   -0.6932 C   0  0  0  0  0
   -2.7436   -0.9512   -1.5648 C   0  0  0  0  0
    0.8682    0.4564   -0.6595 C   0  0  0  0  0
   -3.3974   -1.1895    0.7488 C   0  0  0  0  0
   -0.0603    2.4517   -1.5612 C   0  0  0  0  0
    1.8378    0.4937   -1.6555 C   0  0  0  0  0
   -3.5705   -2.5605    0.5587 C   0  0  0  0  0
   -0.1025    1.4504   -0.6046 C   0  0  0  0  0
   -2.9839   -0.3848   -0.3130 C   0  0  0  0  0
    1.7930    1.5377   -2.5652 C   0  0  0  0  0
    2.8650   -0.5606   -1.7116 C   0  0  0  0  0
    4.0126    2.3086   -3.2965 C   0  0  0  0  0
    2.3626    1.5407   -4.9798 C   0  0  0  0  0
    5.1053    1.8315   -4.2463 C   0  0  0  0  0
    3.5434    1.1050   -5.8403 C   0  0  0  0  0
   -4.0141   -3.4213    1.6930 C   0  0  0  0  0
    0.8658    2.5213   -2.5437 N   0  0  0  0  0
    2.7652    1.5818   -3.5698 N   0  0  0  0  0
   -1.1093    1.4393    0.4039 N   0  0  0  0  0
    2.6291   -1.6178   -2.4072 O   0  0  0  0  0
    3.9636   -0.3890   -1.0629 O   0  0  0  0  0
   -3.6008    1.7326    1.0515 O   0  0  0  0  0
   -2.9446    2.0056   -1.3557 O   0  0  0  0  0
    4.6725    1.9447   -5.6019 O   0  0  0  0  0
   -2.7641    1.3548   -0.0722 S   0  0  0  0  0
  1  3  1  0  0  0
  2  8  1  0  0  0
  4  9  1  0  0  0
  5 10  1  0  0  0
  6 18  1  0  0  0
  7 11  1  0  0  0
  7 12  1  0  0  0
  9 20  1  0  0  0
 11 19  1  0  0  0
 12 21  1  0  0  0
 13 15  1  0  0  0
 13 19  1  0  0  0
 14 16  1  0  0  0
 14 19  1  0  0  0
 15 25  1  0  0  0
 16 25  1  0  0  0
 17  8  1  0  0  0
 26 10  1  0  0  0
 26 20  1  0  0  0
  1  2  2  0  0  0
  3 10  2  0  0  0
  4  7  2  0  0  0
  5  8  2  0  0  0
  6  9  2  0  0  0
 11 18  2  0  0  0
 12 22  2  0  0  0
 26 23  2  0  0  0
 26 24  2  0  0  0
M  CHG  1  21  -1
M  END
> <rmsd>
0.510191619

$$$$
ZINC35397684


 26 28  0  0  0  0  0  0  0  0999 V2000
   -3.5704   -2.5608    0.5585 C   0  0  0  0  0
   -2.9165   -2.3221   -1.7550 C   0  0  0  0  0
   -3.3976   -1.1898    0.7488 C   0  0  0  0  0
   -2.7437   -0.9511   -1.5648 C   0  0  0  0  0
    0.8678    0.4563   -0.6595 C   0  0  0  0  0
   -0.0607    2.4516   -1.5613 C   0  0  0  0  0
    1.8374    0.4936   -1.6555 C   0  0  0  0  0
   -3.3298   -3.1269   -0.6933 C   0  0  0  0  0
   -0.1030    1.4503   -0.6046 C   0  0  0  0  0
   -2.9843   -0.3850   -0.3128 C   0  0  0  0  0
    1.7926    1.5376   -2.5653 C   0  0  0  0  0
    2.8646   -0.5606   -1.7115 C   0  0  0  0  0
    4.0121    2.3084   -3.2966 C   0  0  0  0  0
    2.3621    1.5404   -4.9799 C   0  0  0  0  0
    5.1047    1.8313   -4.2465 C   0  0  0  0  0
    3.5428    1.1047   -5.8404 C   0  0  0  0  0
   -3.5123   -4.5929   -0.8966 C   0  0  0  0  0
    0.8653    2.5212   -2.5437 N   0  0  0  0  0
    2.7648    1.5816   -3.5699 N   0  0  0  0  0
   -1.1097    1.4392    0.4040 N   0  0  0  0  0
    2.6287   -1.6179   -2.4070 O   0  0  0  0  0
    3.9632   -0.3890   -1.0629 O   0  0  0  0  0
   -3.6012    1.7326    1.0515 O   0  0  0  0  0
   -2.9450    2.0054   -1.3556 O   0  0  0  0  0
    4.6720    1.9445   -5.6020 O   0  0  0  0  0
   -2.7645    1.3547   -0.0722 S   0  0  0  0  0
  1  8  1  0  0  0
  2  4  1  0  0  0
  3 10  1  0  0  0
  5  9  1  0  0  0
  6 18  1  0  0  0
  7 11  1  0  0  0
  7 12  1  0  0  0
  9 20  1  0  0  0
 11 19  1  0  0  0
 12 21  1  0  0  0
 13 15  1  0  0  0
 13 19  1  0  0  0
 14 16  1  0  0  0
 14 19  1  0  0  0
 15 25  1  0  0  0
 16 25  1  0  0  0
 17  8  1  0  0  0
 26 10  1  0  0  0
 26 20  1  0  0  0
  1  3  2  0  0  0
  2  8  2  0  0  0
  4 10  2  0  0  0
  5  7  2  0  0  0
  6  9  2  0  0  0
 11 18  2  0  0  0
 12 22  2  0  0  0
 26 23  2  0  0  0
 26 24  2  0  0  0
M  CHG  1  21  -1
M  END
> <rmsd>
0.510254979

$$$$
ZINC35397684


 26 28  0  0  0  0  0  0  0  0999 V2000
   -3.2793   -2.5853    0.4522 C   0  0  0  0  0
   -2.4333   -2.2556   -1.7866 C   0  0  0  0  0
   -3.2324   -1.2087    0.6727 C   0  0  0  0  0
   -2.3865   -0.8790   -1.5663 C   0  0  0  0  0
    1.0042    0.7845   -0.3095 C   0  0  0  0  0
    0.0109    2.7187   -1.2734 C   0  0  0  0  0
    2.0565    0.9139   -1.2092 C   0  0  0  0  0
   -2.8796   -3.1087   -0.7773 C   0  0  0  0  0
   -0.0420    1.7000   -0.3357 C   0  0  0  0  0
   -2.7860   -0.3556   -0.3366 C   0  0  0  0  0
    2.0153    1.9676   -2.1079 C   0  0  0  0  0
    3.1635   -0.0573   -1.1795 C   0  0  0  0  0
    4.2264    2.9193   -2.6185 C   0  0  0  0  0
    2.8054    2.0575   -4.4580 C   0  0  0  0  0
    5.4367    2.5445   -3.4662 C   0  0  0  0  0
    4.0915    1.7291   -5.2079 C   0  0  0  0  0
   -2.9275   -4.5805   -1.0126 C   0  0  0  0  0
    1.0162    2.8766   -2.1634 N   0  0  0  0  0
    3.0705    2.1040   -3.0159 N   0  0  0  0  0
   -1.1344    1.5937    0.5732 N   0  0  0  0  0
    3.0766   -1.1169   -1.9054 O   0  0  0  0  0
    4.1802    0.1863   -0.4284 O   0  0  0  0  0
   -3.6907    1.6835    0.9861 O   0  0  0  0  0
   -2.8364    2.0491   -1.3454 O   0  0  0  0  0
    5.1246    2.6485   -4.8552 O   0  0  0  0  0
   -2.7260    1.3911   -0.0577 S   0  0  0  0  0
  1  8  1  0  0  0
  2  4  1  0  0  0
  3 10  1  0  0  0
  5  9  1  0  0  0
  6 18  1  0  0  0
  7 11  1  0  0  0
  7 12  1  0  0  0
  9 20  1  0  0  0
 11 19  1  0  0  0
 12 21  1  0  0  0
 13 15  1  0  0  0
 13 19  1  0  0  0
 14 16  1  0  0  0
 14 19  1  0  0  0
 15 25  1  0  0  0
 16 25  1  0  0  0
 17  8  1  0  0  0
 26 10  1  0  0  0
 26 20  1  0  0  0
  1  3  2  0  0  0
  2  8  2  0  0  0
  4 10  2  0  0  0
  5  7  2  0  0  0
  6  9  2  0  0  0
 11 18  2  0  0  0
 12 22  2  0  0  0
 26 23  2  0  0  0
 26 24  2  0  0  0
M  CHG  1  21  -1
M  END
> <rmsd>
0.6895051

$$$$
ZINC12771831


 26 28  0  0  0  0  0  0  0  0999 V2000
    1.9267    1.5796   -2.4944 C   0  0  0  0  0
   -2.7468   -2.3035   -1.7851 C   0  0  0  0  0
   -3.4565   -2.5759    0.5082 C   0  0  0  0  0
    1.0199    2.6352   -2.3991 C   0  0  0  0  0
   -2.6167   -0.9298   -1.5816 C   0  0  0  0  0
   -3.3262   -1.2022    0.7118 C   0  0  0  0  0
    0.8289    0.4701   -0.6502 C   0  0  0  0  0
    1.8313    0.4970   -1.6199 C   0  0  0  0  0
   -3.1668   -3.1267   -0.7401 C   0  0  0  0  0
   -0.0779    1.5257   -0.5549 C   0  0  0  0  0
    0.0176    2.6082   -1.4294 C   0  0  0  0  0
   -2.9063   -0.3791   -0.3333 C   0  0  0  0  0
    2.7882   -0.6164   -1.7207 C   0  0  0  0  0
   -3.9328   -7.4012   -0.1610 C   0  0  0  0  0
   -4.8923   -6.5990   -1.0348 C   0  0  0  0  0
   -2.4906   -6.9344   -0.3335 C   0  0  0  0  0
   -4.7624   -5.0977   -0.7839 C   0  0  0  0  0
   -2.3489   -5.4348   -0.0791 C   0  0  0  0  0
   -3.3103   -4.6172   -0.9612 C   0  0  0  0  0
   -1.1100    1.4961    0.4462 N   0  0  0  0  0
    2.6787   -1.6041   -0.9013 O   0  0  0  0  0
    3.7041   -0.5669   -2.6248 O   0  0  0  0  0
   -3.6127    1.7085    1.0338 O   0  0  0  0  0
   -2.9129    2.0201   -1.3563 O   0  0  0  0  0
   -0.8494    3.6275   -1.3467 F   0  0  0  0  0
   -2.7438    1.3404   -0.0778 S   0  0  0  0  0
  1  8  1  0  0  0
  2  5  1  0  0  0
  3  9  1  0  0  0
  4 11  1  0  0  0
  6 12  1  0  0  0
  7 10  1  0  0  0
  8 13  1  0  0  0
 10 20  1  0  0  0
 11 25  1  0  0  0
 13 21  1  0  0  0
 14 15  1  0  0  0
 14 16  1  0  0  0
 15 17  1  0  0  0
 16 18  1  0  0  0
 17 19  1  0  0  0
 18 19  1  0  0  0
 19  9  1  0  0  0
 26 12  1  0  0  0
 26 20  1  0  0  0
  1  4  2  0  0  0
  2  9  2  0  0  0
  3  6  2  0  0  0
  5 12  2  0  0  0
  7  8  2  0  0  0
 10 11  2  0  0  0
 13 22  2  0  0  0
 26 23  2  0  0  0
 26 24  2  0  0  0
M  CHG  1  21  -1
M  END
> <rmsd>
0.585786998

$$$$
ZINC64843447


 26 27  0  0  0  0  0  0  0  0999 V2000
   -2.9157   -2.3212   -1.7589 C   0  0  0  0  0
   -3.5705   -2.5602    0.5543 C   0  0  0  0  0
   -2.7427   -0.9503   -1.5683 C   0  0  0  0  0
   -3.3974   -1.1893    0.7450 C   0  0  0  0  0
    0.8691    0.4551   -0.6665 C   0  0  0  0  0
   -0.0890    2.4176   -1.6087 C   0  0  0  0  0
    1.8277    0.4765   -1.6734 C   0  0  0  0  0
   -3.3298   -3.1262   -0.6976 C   0  0  0  0  0
   -0.1110    1.4406   -0.6265 C   0  0  0  0  0
   -2.9834   -0.3843   -0.3164 C   0  0  0  0  0
    1.7629    1.4965   -2.6089 C   0  0  0  0  0
    2.8651   -0.5685   -1.7136 C   0  0  0  0  0
   -2.1895   -5.2736   -1.3565 C   0  0  0  0  0
   -4.5918   -4.8779   -1.9958 C   0  0  0  0  0
   -3.9844   -5.3908    0.3600 C   0  0  0  0  0
    2.4972    0.8331   -4.8850 C   0  0  0  0  0
    3.9697    2.2572   -3.4526 C   0  0  0  0  0
   -3.5228   -4.6370   -0.9080 C   0  0  0  0  0
    0.8259    2.4712   -2.6024 N   0  0  0  0  0
   -1.1162    1.4454    0.4021 N   0  0  0  0  0
    2.7369    1.5248   -3.6383 N   0  0  0  0  0
    2.6326   -1.6455   -2.3795 O   0  0  0  0  0
    3.9686   -0.3696   -1.0813 O   0  0  0  0  0
   -3.5956    1.7300    1.0550 O   0  0  0  0  0
   -2.9520    2.0079   -1.3550 O   0  0  0  0  0
   -2.7672    1.3315   -0.0769 S   0  0  0  0  0
  1  8  1  0  0  0
  2  4  1  0  0  0
  3 10  1  0  0  0
  5  9  1  0  0  0
  6 19  1  0  0  0
  7 11  1  0  0  0
  7 12  1  0  0  0
  9 20  1  0  0  0
 11 21  1  0  0  0
 12 22  1  0  0  0
 13 18  1  0  0  0
 14 18  1  0  0  0
 15 18  1  0  0  0
 16 21  1  0  0  0
 17 21  1  0  0  0
 18  8  1  0  0  0
 26 10  1  0  0  0
 26 20  1  0  0  0
  1  3  2  0  0  0
  2  8  2  0  0  0
  4 10  2  0  0  0
  5  7  2  0  0  0
  6  9  2  0  0  0
 11 19  2  0  0  0
 12 23  2  0  0  0
 26 24  2  0  0  0
 26 25  2  0  0  0
M  CHG  1  22  -1
M  END
> <rmsd>
0.512533307

$$$$
ZINC64843447


 26 27  0  0  0  0  0  0  0  0999 V2000
   -2.4314   -2.2495   -1.7973 C   0  0  0  0  0
   -3.2707   -2.5855    0.4432 C   0  0  0  0  0
   -2.3869   -0.8733   -1.5742 C   0  0  0  0  0
   -3.2260   -1.2093    0.6664 C   0  0  0  0  0
    1.0045    0.7940   -0.3281 C   0  0  0  0  0
   -0.0193    2.6933   -1.3289 C   0  0  0  0  0
    2.0451    0.9110   -1.2428 C   0  0  0  0  0
   -2.8735   -3.1056   -0.7886 C   0  0  0  0  0
   -0.0512    1.6982   -0.3653 C   0  0  0  0  0
   -2.7841   -0.3532   -0.3424 C   0  0  0  0  0
    1.9832    1.9412   -2.1672 C   0  0  0  0  0
    3.1624   -0.0481   -1.2014 C   0  0  0  0  0
   -1.5099   -5.1429   -1.3678 C   0  0  0  0  0
   -3.8687   -4.9250   -2.2190 C   0  0  0  0  0
   -3.4369   -5.4355    0.1757 C   0  0  0  0  0
    2.9704    1.3833   -4.3750 C   0  0  0  0  0
    4.1888    2.8900   -2.7958 C   0  0  0  0  0
   -2.9249   -4.6225   -1.0350 C   0  0  0  0  0
    0.9743    2.8386   -2.2340 N   0  0  0  0  0
   -1.1421    1.6032    0.5671 N   0  0  0  0  0
    3.0406    2.0667   -3.1029 N   0  0  0  0  0
    3.0780   -1.1265   -1.8994 O   0  0  0  0  0
    4.1849    0.2244   -0.4684 O   0  0  0  0  0
   -3.6850    1.6786    0.9941 O   0  0  0  0  0
   -2.8513    2.0544   -1.3432 O   0  0  0  0  0
   -2.7287    1.3692   -0.0623 S   0  0  0  0  0
  1  8  1  0  0  0
  2  4  1  0  0  0
  3 10  1  0  0  0
  5  9  1  0  0  0
  6 19  1  0  0  0
  7 11  1  0  0  0
  7 12  1  0  0  0
  9 20  1  0  0  0
 11 21  1  0  0  0
 12 22  1  0  0  0
 13 18  1  0  0  0
 14 18  1  0  0  0
 15 18  1  0  0  0
 16 21  1  0  0  0
 17 21  1  0  0  0
 18  8  1  0  0  0
 26 10  1  0  0  0
 26 20  1  0  0  0
  1  3  2  0  0  0
  2  8  2  0  0  0
  4 10  2  0  0  0
  5  7  2  0  0  0
  6  9  2  0  0  0
 11 19  2  0  0  0
 12 23  2  0  0  0
 26 24  2  0  0  0
 26 25  2  0  0  0
M  CHG  1  22  -1
M  END
> <rmsd>
0.69488889

$$$$
ZINC64843444


 26 27  0  0  0  0  0  0  0  0999 V2000
   -3.5687   -2.5612    0.5525 C   0  0  0  0  0
   -2.9140   -2.3202   -1.7605 C   0  0  0  0  0
   -3.3965   -1.1904    0.7441 C   0  0  0  0  0
   -2.7418   -0.9494   -1.5690 C   0  0  0  0  0
    0.8694    0.4555   -0.6673 C   0  0  0  0  0
   -0.0891    2.4176   -1.6097 C   0  0  0  0  0
    1.8279    0.4768   -1.6742 C   0  0  0  0  0
   -3.3274   -3.1262   -0.6998 C   0  0  0  0  0
   -0.1110    1.4408   -0.6273 C   0  0  0  0  0
   -2.9831   -0.3844   -0.3166 C   0  0  0  0  0
    1.7629    1.4966   -2.6099 C   0  0  0  0  0
    2.8653   -0.5682   -1.7144 C   0  0  0  0  0
   -1.7501   -5.2776    0.8076 C   0  0  0  0  0
   -2.5169   -6.9177   -0.9204 C   0  0  0  0  0
    2.4970    0.8329   -4.8860 C   0  0  0  0  0
    3.9694    2.2575   -3.4539 C   0  0  0  0  0
   -3.5116   -4.6098   -0.9070 C   0  0  0  0  0
   -2.2419   -5.4396   -0.6330 C   0  0  0  0  0
    0.8258    2.4712   -2.6035 N   0  0  0  0  0
   -1.1159    1.4456    0.4014 N   0  0  0  0  0
    2.7368    1.5249   -3.6394 N   0  0  0  0  0
    2.6329   -1.6452   -2.3801 O   0  0  0  0  0
    3.9689   -0.3690   -1.0823 O   0  0  0  0  0
   -3.5953    1.7301    1.0544 O   0  0  0  0  0
   -2.9520    2.0076   -1.3557 O   0  0  0  0  0
   -2.7670    1.3315   -0.0775 S   0  0  0  0  0
  1  8  1  0  0  0
  2  4  1  0  0  0
  3 10  1  0  0  0
  5  9  1  0  0  0
  6 19  1  0  0  0
  7 11  1  0  0  0
  7 12  1  0  0  0
  9 20  1  0  0  0
 11 21  1  0  0  0
 12 22  1  0  0  0
 13 18  1  0  0  0
 14 18  1  0  0  0
 15 21  1  0  0  0
 16 21  1  0  0  0
 17  8  1  0  0  0
 17 18  1  0  0  0
 26 10  1  0  0  0
 26 20  1  0  0  0
  1  3  2  0  0  0
  2  8  2  0  0  0
  4 10  2  0  0  0
  5  7  2  0  0  0
  6  9  2  0  0  0
 11 19  2  0  0  0
 12 23  2  0  0  0
 26 24  2  0  0  0
 26 25  2  0  0  0
M  CHG  1  22  -1
M  END
> <rmsd>
0.51326555

$$$$
ZINC64843444


 26 27  0  0  0  0  0  0  0  0999 V2000
   -3.2691   -2.5863    0.4416 C   0  0  0  0  0
   -2.4299   -2.2484   -1.7986 C   0  0  0  0  0
   -3.2253   -1.2103    0.6656 C   0  0  0  0  0
   -2.3861   -0.8724   -1.5747 C   0  0  0  0  0
    1.0047    0.7939   -0.3287 C   0  0  0  0  0
   -0.0190    2.6930   -1.3297 C   0  0  0  0  0
    2.0454    0.9107   -1.2433 C   0  0  0  0  0
   -2.8713   -3.1054   -0.7904 C   0  0  0  0  0
   -0.0510    1.6980   -0.3660 C   0  0  0  0  0
   -2.7839   -0.3533   -0.3425 C   0  0  0  0  0
    1.9834    1.9407   -2.1680 C   0  0  0  0  0
    3.1626   -0.0484   -1.2017 C   0  0  0  0  0
   -1.2690   -5.1557    0.8275 C   0  0  0  0  0
   -1.7429   -6.8163   -0.9841 C   0  0  0  0  0
    2.9706    1.3823   -4.3757 C   0  0  0  0  0
    4.1889    2.8894   -2.7970 C   0  0  0  0  0
   -2.9166   -4.5945   -1.0324 C   0  0  0  0  0
   -1.6143   -5.3272   -0.6540 C   0  0  0  0  0
    0.9745    2.8382   -2.2350 N   0  0  0  0  0
   -1.1418    1.6033    0.5664 N   0  0  0  0  0
    3.0408    2.0660   -3.1037 N   0  0  0  0  0
    3.0782   -1.1270   -1.8996 O   0  0  0  0  0
    4.1851    0.2243   -0.4689 O   0  0  0  0  0
   -3.6847    1.6787    0.9935 O   0  0  0  0  0
   -2.8511    2.0541   -1.3439 O   0  0  0  0  0
   -2.7285    1.3692   -0.0629 S   0  0  0  0  0
  1  8  1  0  0  0
  2  4  1  0  0  0
  3 10  1  0  0  0
  5  9  1  0  0  0
  6 19  1  0  0  0
  7 11  1  0  0  0
  7 12  1  0  0  0
  9 20  1  0  0  0
 11 21  1  0  0  0
 12 22  1  0  0  0
 13 18  1  0  0  0
 14 18  1  0  0  0
 15 21  1  0  0  0
 16 21  1  0  0  0
 17  8  1  0  0  0
 17 18  1  0  0  0
 26 10  1  0  0  0
 26 20  1  0  0  0
  1  3  2  0  0  0
  2  8  2  0  0  0
  4 10  2  0  0  0
  5  7  2  0  0  0
  6  9  2  0  0  0
 11 19  2  0  0  0
 12 23  2  0  0  0
 26 24  2  0  0  0
 26 25  2  0  0  0
M  CHG  1  22  -1
M  END
> <rmsd>
0.695561349

$$$$
ZINC35397661


 26 27  0  0  0  0  0  0  0  0999 V2000
   -3.2695   -2.5865    0.4417 C   0  0  0  0  0
   -2.4305   -2.2486   -1.7985 C   0  0  0  0  0
   -3.2258   -1.2105    0.6657 C   0  0  0  0  0
   -2.3867   -0.8724   -1.5746 C   0  0  0  0  0
    1.0042    0.7938   -0.3288 C   0  0  0  0  0
   -0.0196    2.6929   -1.3298 C   0  0  0  0  0
    2.0448    0.9106   -1.2436 C   0  0  0  0  0
   -2.8719   -3.1056   -0.7904 C   0  0  0  0  0
   -0.0515    1.6979   -0.3660 C   0  0  0  0  0
   -2.7843   -0.3534   -0.3424 C   0  0  0  0  0
    1.9827    1.9406   -2.1682 C   0  0  0  0  0
    3.1619   -0.0485   -1.2021 C   0  0  0  0  0
   -1.6111   -5.2679   -0.6439 C   0  0  0  0  0
    2.2899    2.2235   -5.4020 C   0  0  0  0  0
    3.9030    4.3292   -3.0588 C   0  0  0  0  0
   -2.9166   -4.5768   -1.0296 C   0  0  0  0  0
    2.9697    1.3823   -4.3760 C   0  0  0  0  0
    4.1882    2.8894   -2.7973 C   0  0  0  0  0
    0.9738    2.8381   -2.2351 N   0  0  0  0  0
   -1.1422    1.6031    0.5665 N   0  0  0  0  0
    3.0400    2.0660   -3.1040 N   0  0  0  0  0
    3.0775   -1.1271   -1.9000 O   0  0  0  0  0
    4.1846    0.2242   -0.4693 O   0  0  0  0  0
   -3.6851    1.6786    0.9938 O   0  0  0  0  0
   -2.8518    2.0541   -1.3437 O   0  0  0  0  0
   -2.7290    1.3691   -0.0627 S   0  0  0  0  0
  1  8  1  0  0  0
  2  4  1  0  0  0
  3 10  1  0  0  0
  5  9  1  0  0  0
  6 19  1  0  0  0
  7 11  1  0  0  0
  7 12  1  0  0  0
  9 20  1  0  0  0
 11 21  1  0  0  0
 12 22  1  0  0  0
 13 16  1  0  0  0
 14 17  1  0  0  0
 15 18  1  0  0  0
 16  8  1  0  0  0
 17 21  1  0  0  0
 18 21  1  0  0  0
 26 10  1  0  0  0
 26 20  1  0  0  0
  1  3  2  0  0  0
  2  8  2  0  0  0
  4 10  2  0  0  0
  5  7  2  0  0  0
  6  9  2  0  0  0
 11 19  2  0  0  0
 12 23  2  0  0  0
 26 24  2  0  0  0
 26 25  2  0  0  0
M  CHG  1  22  -1
M  END
> <rmsd>
0.695402503

$$$$
ZINC35397661


 26 27  0  0  0  0  0  0  0  0999 V2000
   -3.5694   -2.5614    0.5527 C   0  0  0  0  0
   -2.9146   -2.3205   -1.7603 C   0  0  0  0  0
   -3.3971   -1.1906    0.7444 C   0  0  0  0  0
   -2.7423   -0.9495   -1.5688 C   0  0  0  0  0
    0.8689    0.4549   -0.6672 C   0  0  0  0  0
   -0.0894    2.4172   -1.6096 C   0  0  0  0  0
    1.8275    0.4762   -1.6741 C   0  0  0  0  0
   -3.3282   -3.1263   -0.6996 C   0  0  0  0  0
   -0.1113    1.4404   -0.6272 C   0  0  0  0  0
   -2.9835   -0.3846   -0.3164 C   0  0  0  0  0
    1.7624    1.4960   -2.6099 C   0  0  0  0  0
    2.8647   -0.5689   -1.7144 C   0  0  0  0  0
   -2.2335   -5.3808   -0.6240 C   0  0  0  0  0
    1.7940    1.7121   -5.8632 C   0  0  0  0  0
    3.7754    3.7112   -3.7175 C   0  0  0  0  0
   -3.5102   -4.5922   -0.9042 C   0  0  0  0  0
    2.4964    0.8322   -4.8860 C   0  0  0  0  0
    3.9690    2.2566   -3.4540 C   0  0  0  0  0
    0.8255    2.4706   -2.6035 N   0  0  0  0  0
   -1.1163    1.4453    0.4015 N   0  0  0  0  0
    2.7363    1.5241   -3.6395 N   0  0  0  0  0
    2.6322   -1.6460   -2.3801 O   0  0  0  0  0
    3.9684   -0.3697   -1.0823 O   0  0  0  0  0
   -3.5956    1.7300    1.0546 O   0  0  0  0  0
   -2.9524    2.0076   -1.3555 O   0  0  0  0  0
   -2.7674    1.3313   -0.0773 S   0  0  0  0  0
  1  8  1  0  0  0
  2  4  1  0  0  0
  3 10  1  0  0  0
  5  9  1  0  0  0
  6 19  1  0  0  0
  7 11  1  0  0  0
  7 12  1  0  0  0
  9 20  1  0  0  0
 11 21  1  0  0  0
 12 22  1  0  0  0
 13 16  1  0  0  0
 14 17  1  0  0  0
 15 18  1  0  0  0
 16  8  1  0  0  0
 17 21  1  0  0  0
 18 21  1  0  0  0
 26 10  1  0  0  0
 26 20  1  0  0  0
  1  3  2  0  0  0
  2  8  2  0  0  0
  4 10  2  0  0  0
  5  7  2  0  0  0
  6  9  2  0  0  0
 11 19  2  0  0  0
 12 23  2  0  0  0
 26 24  2  0  0  0
 26 25  2  0  0  0
M  CHG  1  22  -1
M  END
> <rmsd>
0.513223231

$$$$
ZINC35397678


 26 27  0  0  0  0  0  0  0  0999 V2000
    1.0046    0.7935   -0.3280 C   0  0  0  0  0
   -2.8731   -3.1056   -0.7898 C   0  0  0  0  0
   -3.2257   -1.2103    0.6661 C   0  0  0  0  0
   -2.3869   -0.8729   -1.5743 C   0  0  0  0  0
   -0.0192    2.6925   -1.3291 C   0  0  0  0  0
    2.0452    0.9103   -1.2428 C   0  0  0  0  0
   -3.2702   -2.5864    0.4422 C   0  0  0  0  0
   -2.4314   -2.2489   -1.7982 C   0  0  0  0  0
   -0.0511    1.6976   -0.3654 C   0  0  0  0  0
   -2.7841   -0.3535   -0.3422 C   0  0  0  0  0
    1.9832    1.9402   -2.1674 C   0  0  0  0  0
    3.1624   -0.0489   -1.2012 C   0  0  0  0  0
   -3.7423   -3.5023    1.5203 C   0  0  0  0  0
   -2.0066   -2.8043   -3.1155 C   0  0  0  0  0
    2.2904    2.2229   -5.4012 C   0  0  0  0  0
    3.9034    4.3287   -3.0582 C   0  0  0  0  0
    2.9703    1.3817   -4.3751 C   0  0  0  0  0
    4.1888    2.8890   -2.7965 C   0  0  0  0  0
    0.9743    2.8376   -2.2345 N   0  0  0  0  0
   -1.1419    1.6029    0.5671 N   0  0  0  0  0
    3.0405    2.0655   -3.1032 N   0  0  0  0  0
    3.0781   -1.1275   -1.8989 O   0  0  0  0  0
    4.1850    0.2239   -0.4684 O   0  0  0  0  0
   -3.6848    1.6784    0.9941 O   0  0  0  0  0
   -2.8511    2.0541   -1.3432 O   0  0  0  0  0
   -2.7286    1.3687   -0.0623 S   0  0  0  0  0
  1  9  1  0  0  0
  2  7  1  0  0  0
  3 10  1  0  0  0
  4  8  1  0  0  0
  5 19  1  0  0  0
  6 11  1  0  0  0
  6 12  1  0  0  0
  9 20  1  0  0  0
 11 21  1  0  0  0
 12 22  1  0  0  0
 13  7  1  0  0  0
 14  8  1  0  0  0
 15 17  1  0  0  0
 16 18  1  0  0  0
 17 21  1  0  0  0
 18 21  1  0  0  0
 26 10  1  0  0  0
 26 20  1  0  0  0
  1  6  2  0  0  0
  2  8  2  0  0  0
  3  7  2  0  0  0
  4 10  2  0  0  0
  5  9  2  0  0  0
 11 19  2  0  0  0
 12 23  2  0  0  0
 26 24  2  0  0  0
 26 25  2  0  0  0
M  CHG  1  22  -1
M  END
> <rmsd>
0.694877207

$$$$
ZINC35397678


 26 27  0  0  0  0  0  0  0  0999 V2000
    0.8692    0.4551   -0.6668 C   0  0  0  0  0
   -3.3292   -3.1262   -0.6992 C   0  0  0  0  0
   -3.3968   -1.1904    0.7446 C   0  0  0  0  0
   -2.7426   -0.9497   -1.5687 C   0  0  0  0  0
   -0.0893    2.4172   -1.6091 C   0  0  0  0  0
    1.8277    0.4764   -1.6739 C   0  0  0  0  0
   -3.5697   -2.5612    0.5531 C   0  0  0  0  0
   -2.9156   -2.3205   -1.7601 C   0  0  0  0  0
   -0.1111    1.4404   -0.6268 C   0  0  0  0  0
   -2.9833   -0.3847   -0.3163 C   0  0  0  0  0
    1.7626    1.4962   -2.6095 C   0  0  0  0  0
    2.8650   -0.5686   -1.7142 C   0  0  0  0  0
   -4.0118   -3.4226    1.6874 C   0  0  0  0  0
   -2.6581   -2.9249   -3.0991 C   0  0  0  0  0
    1.7938    1.7124   -5.8628 C   0  0  0  0  0
    3.7752    3.7116   -3.7172 C   0  0  0  0  0
    2.4965    0.8325   -4.8857 C   0  0  0  0  0
    3.9691    2.2571   -3.4538 C   0  0  0  0  0
    0.8255    2.4707   -2.6031 N   0  0  0  0  0
   -1.1160    1.4452    0.4020 N   0  0  0  0  0
    2.7364    1.5245   -3.6391 N   0  0  0  0  0
    2.6326   -1.6457   -2.3798 O   0  0  0  0  0
    3.9687   -0.3693   -1.0821 O   0  0  0  0  0
   -3.5953    1.7297    1.0551 O   0  0  0  0  0
   -2.9520    2.0077   -1.3550 O   0  0  0  0  0
   -2.7672    1.3310   -0.0769 S   0  0  0  0  0
  1  9  1  0  0  0
  2  7  1  0  0  0
  3 10  1  0  0  0
  4  8  1  0  0  0
  5 19  1  0  0  0
  6 11  1  0  0  0
  6 12  1  0  0  0
  9 20  1  0  0  0
 11 21  1  0  0  0
 12 22  1  0  0  0
 13  7  1  0  0  0
 14  8  1  0  0  0
 15 17  1  0  0  0
 16 18  1  0  0  0
 17 21  1  0  0  0
 18 21  1  0  0  0
 26 10  1  0  0  0
 26 20  1  0  0  0
  1  6  2  0  0  0
  2  8  2  0  0  0
  3  7  2  0  0  0
  4 10  2  0  0  0
  5  9  2  0  0  0
 11 19  2  0  0  0
 12 23  2  0  0  0
 26 24  2  0  0  0
 26 25  2  0  0  0
M  CHG  1  22  -1
M  END
> <rmsd>
0.512769759

$$$$
ZINC35397374


 26 27  0  0  0  0  0  0  0  0999 V2000
   -3.3299   -3.1267   -0.6924 C   0  0  0  0  0
   -3.5704   -2.5601    0.5593 C   0  0  0  0  0
   -2.9165   -2.3223   -1.7542 C   0  0  0  0  0
   -3.3975   -1.1890    0.7491 C   0  0  0  0  0
   -2.7436   -0.9513   -1.5646 C   0  0  0  0  0
    0.8679    0.4567   -0.6593 C   0  0  0  0  0
   -0.0606    2.4522   -1.5609 C   0  0  0  0  0
    1.8376    0.4942   -1.6552 C   0  0  0  0  0
   -0.1028    1.4507   -0.6043 C   0  0  0  0  0
   -2.9841   -0.3847   -0.3129 C   0  0  0  0  0
    1.7928    1.5384   -2.5648 C   0  0  0  0  0
    2.8648   -0.5600   -1.7114 C   0  0  0  0  0
    1.4866    1.0958   -7.1316 C   0  0  0  0  0
    5.0778    4.5538   -2.8006 C   0  0  0  0  0
    1.7197    1.7781   -5.7911 C   0  0  0  0  0
    3.7838    3.7847   -3.0255 C   0  0  0  0  0
    2.5717    0.9411   -4.8445 C   0  0  0  0  0
    4.0207    2.3121   -3.3382 C   0  0  0  0  0
    0.8655    2.5219   -2.5432 N   0  0  0  0  0
   -1.1096    1.4394    0.4042 N   0  0  0  0  0
    2.7698    1.5826   -3.5744 N   0  0  0  0  0
    2.6289   -1.6172   -2.4071 O   0  0  0  0  0
    3.9634   -0.3885   -1.0627 O   0  0  0  0  0
   -3.6011    1.7327    1.0518 O   0  0  0  0  0
   -2.9449    2.0060   -1.3553 O   0  0  0  0  0
   -2.7644    1.3550   -0.0720 S   0  0  0  0  0
  1  2  1  0  0  0
  3  5  1  0  0  0
  4 10  1  0  0  0
  6  9  1  0  0  0
  7 19  1  0  0  0
  8 11  1  0  0  0
  8 12  1  0  0  0
  9 20  1  0  0  0
 11 21  1  0  0  0
 12 22  1  0  0  0
 13 15  1  0  0  0
 14 16  1  0  0  0
 15 17  1  0  0  0
 16 18  1  0  0  0
 17 21  1  0  0  0
 18 21  1  0  0  0
 26 10  1  0  0  0
 26 20  1  0  0  0
  1  3  2  0  0  0
  2  4  2  0  0  0
  5 10  2  0  0  0
  6  8  2  0  0  0
  7  9  2  0  0  0
 11 19  2  0  0  0
 12 23  2  0  0  0
 26 24  2  0  0  0
 26 25  2  0  0  0
M  CHG  1  22  -1
M  END
> <rmsd>
0.510134339

$$$$
ZINC35397374


 26 27  0  0  0  0  0  0  0  0999 V2000
   -2.8800   -3.1086   -0.7764 C   0  0  0  0  0
   -3.2795   -2.5846    0.4531 C   0  0  0  0  0
   -2.4335   -2.2559   -1.7859 C   0  0  0  0  0
   -3.2324   -1.2080    0.6729 C   0  0  0  0  0
   -2.3865   -0.8793   -1.5661 C   0  0  0  0  0
    1.0043    0.7848   -0.3095 C   0  0  0  0  0
    0.0110    2.7191   -1.2731 C   0  0  0  0  0
    2.0566    0.9143   -1.2091 C   0  0  0  0  0
   -0.0418    1.7003   -0.3355 C   0  0  0  0  0
   -2.7859   -0.3554   -0.3367 C   0  0  0  0  0
    2.0154    1.9682   -2.1077 C   0  0  0  0  0
    3.1637   -0.0569   -1.1795 C   0  0  0  0  0
    2.1713    1.5856   -6.6874 C   0  0  0  0  0
    5.0630    5.2302   -2.0004 C   0  0  0  0  0
    2.2247    2.2595   -5.3237 C   0  0  0  0  0
    3.8595    4.3684   -2.3546 C   0  0  0  0  0
    3.0475    1.4734   -4.3101 C   0  0  0  0  0
    4.2386    2.9241   -2.6592 C   0  0  0  0  0
    1.0163    2.8772   -2.1630 N   0  0  0  0  0
   -1.1343    1.5938    0.5734 N   0  0  0  0  0
    3.0758    2.1053   -3.0201 N   0  0  0  0  0
    3.0767   -1.1164   -1.9056 O   0  0  0  0  0
    4.1803    0.1866   -0.4284 O   0  0  0  0  0
   -3.6905    1.6837    0.9864 O   0  0  0  0  0
   -2.8363    2.0496   -1.3451 O   0  0  0  0  0
   -2.7259    1.3914   -0.0576 S   0  0  0  0  0
  1  2  1  0  0  0
  3  5  1  0  0  0
  4 10  1  0  0  0
  6  9  1  0  0  0
  7 19  1  0  0  0
  8 11  1  0  0  0
  8 12  1  0  0  0
  9 20  1  0  0  0
 11 21  1  0  0  0
 12 22  1  0  0  0
 13 15  1  0  0  0
 14 16  1  0  0  0
 15 17  1  0  0  0
 16 18  1  0  0  0
 17 21  1  0  0  0
 18 21  1  0  0  0
 26 10  1  0  0  0
 26 20  1  0  0  0
  1  3  2  0  0  0
  2  4  2  0  0  0
  5 10  2  0  0  0
  6  8  2  0  0  0
  7  9  2  0  0  0
 11 19  2  0  0  0
 12 23  2  0  0  0
 26 24  2  0  0  0
 26 25  2  0  0  0
M  CHG  1  22  -1
M  END
> <rmsd>
0.689335763

$$$$
ZINC35397251


 26 27  0  0  0  0  0  0  0  0999 V2000
   -3.2789   -2.5849    0.4525 C   0  0  0  0  0
   -2.4329   -2.2553   -1.7864 C   0  0  0  0  0
   -3.2321   -1.2084    0.6729 C   0  0  0  0  0
   -2.3861   -0.8787   -1.5659 C   0  0  0  0  0
    1.0045    0.7849   -0.3092 C   0  0  0  0  0
    0.0113    2.7190   -1.2731 C   0  0  0  0  0
    2.0568    0.9143   -1.2088 C   0  0  0  0  0
   -2.8792   -3.1084   -0.7771 C   0  0  0  0  0
   -0.0417    1.7004   -0.3354 C   0  0  0  0  0
   -2.7857   -0.3553   -0.3363 C   0  0  0  0  0
    2.0156    1.9680   -2.1076 C   0  0  0  0  0
    3.1639   -0.0569   -1.1792 C   0  0  0  0  0
   -2.9272   -4.5802   -1.0124 C   0  0  0  0  0
    1.5448    2.4469   -7.7486 C   0  0  0  0  0
    4.2449    2.9126   -2.6537 C   0  0  0  0  0
    2.3017    1.6111   -6.7282 C   0  0  0  0  0
    2.3520    2.3045   -5.3648 C   0  0  0  0  0
    3.0536    1.4621   -4.3046 C   0  0  0  0  0
    1.0165    2.8771   -2.1630 N   0  0  0  0  0
   -1.1340    1.5940    0.5735 N   0  0  0  0  0
    3.0759    2.1051   -3.0200 N   0  0  0  0  0
    3.0770   -1.1164   -1.9051 O   0  0  0  0  0
    4.1806    0.1868   -0.4281 O   0  0  0  0  0
   -3.6903    1.6838    0.9865 O   0  0  0  0  0
   -2.8361    2.0494   -1.3450 O   0  0  0  0  0
   -2.7257    1.3915   -0.0573 S   0  0  0  0  0
  1  8  1  0  0  0
  2  4  1  0  0  0
  3 10  1  0  0  0
  5  9  1  0  0  0
  6 19  1  0  0  0
  7 11  1  0  0  0
  7 12  1  0  0  0
  9 20  1  0  0  0
 11 21  1  0  0  0
 12 22  1  0  0  0
 13  8  1  0  0  0
 14 16  1  0  0  0
 15 21  1  0  0  0
 16 17  1  0  0  0
 17 18  1  0  0  0
 18 21  1  0  0  0
 26 10  1  0  0  0
 26 20  1  0  0  0
  1  3  2  0  0  0
  2  8  2  0  0  0
  4 10  2  0  0  0
  5  7  2  0  0  0
  6  9  2  0  0  0
 11 19  2  0  0  0
 12 23  2  0  0  0
 26 24  2  0  0  0
 26 25  2  0  0  0
M  CHG  1  22  -1
M  END
> <rmsd>
0.689324498

$$$$
ZINC35397251


 26 27  0  0  0  0  0  0  0  0999 V2000
   -3.5699   -2.5605    0.5588 C   0  0  0  0  0
   -2.9159   -2.3219   -1.7548 C   0  0  0  0  0
   -3.3971   -1.1895    0.7490 C   0  0  0  0  0
   -2.7432   -0.9509   -1.5645 C   0  0  0  0  0
    0.8683    0.4566   -0.6592 C   0  0  0  0  0
   -0.0602    2.4518   -1.5610 C   0  0  0  0  0
    1.8379    0.4938   -1.6551 C   0  0  0  0  0
   -3.3293   -3.1267   -0.6932 C   0  0  0  0  0
   -0.1024    1.4505   -0.6042 C   0  0  0  0  0
   -2.9838   -0.3847   -0.3126 C   0  0  0  0  0
    1.7931    1.5379   -2.5649 C   0  0  0  0  0
    2.8651   -0.5604   -1.7112 C   0  0  0  0  0
   -3.5119   -4.5927   -0.8964 C   0  0  0  0  0
    0.8307    1.9915   -8.1452 C   0  0  0  0  0
    4.0268    2.2997   -3.3332 C   0  0  0  0  0
    1.6142    1.1102   -7.1849 C   0  0  0  0  0
    1.8458    1.8120   -5.8449 C   0  0  0  0  0
    2.5775    0.9289   -4.8396 C   0  0  0  0  0
    0.8659    2.5214   -2.5434 N   0  0  0  0  0
   -1.1091    1.4394    0.4042 N   0  0  0  0  0
    2.7701    1.5820   -3.5745 N   0  0  0  0  0
    2.6292   -1.6176   -2.4067 O   0  0  0  0  0
    3.9638   -0.3887   -1.0626 O   0  0  0  0  0
   -3.6007    1.7328    1.0518 O   0  0  0  0  0
   -2.9445    2.0057   -1.3553 O   0  0  0  0  0
   -2.7640    1.3549   -0.0718 S   0  0  0  0  0
  1  8  1  0  0  0
  2  4  1  0  0  0
  3 10  1  0  0  0
  5  9  1  0  0  0
  6 19  1  0  0  0
  7 11  1  0  0  0
  7 12  1  0  0  0
  9 20  1  0  0  0
 11 21  1  0  0  0
 12 22  1  0  0  0
 13  8  1  0  0  0
 14 16  1  0  0  0
 15 21  1  0  0  0
 16 17  1  0  0  0
 17 18  1  0  0  0
 18 21  1  0  0  0
 26 10  1  0  0  0
 26 20  1  0  0  0
  1  3  2  0  0  0
  2  8  2  0  0  0
  4 10  2  0  0  0
  5  7  2  0  0  0
  6  9  2  0  0  0
 11 19  2  0  0  0
 12 23  2  0  0  0
 26 24  2  0  0  0
 26 25  2  0  0  0
M  CHG  1  22  -1
M  END
> <rmsd>
0.510271072

$$$$
ZINC35397654


 26 27  0  0  0  0  0  0  0  0999 V2000
   -3.2695   -2.5857    0.4425 C   0  0  0  0  0
   -3.2261   -1.2095    0.6656 C   0  0  0  0  0
    1.0043    0.7938   -0.3282 C   0  0  0  0  0
   -2.3859   -0.8729   -1.5744 C   0  0  0  0  0
   -0.0192    2.6932   -1.3288 C   0  0  0  0  0
    2.0451    0.9107   -1.2429 C   0  0  0  0  0
   -2.8709   -3.1055   -0.7890 C   0  0  0  0  0
   -2.4291   -2.2491   -1.7975 C   0  0  0  0  0
   -0.0513    1.6980   -0.3653 C   0  0  0  0  0
   -2.7843   -0.3531   -0.3429 C   0  0  0  0  0
    1.9832    1.9410   -2.1672 C   0  0  0  0  0
    3.1621   -0.0485   -1.2015 C   0  0  0  0  0
   -2.9253   -4.5825   -1.0041 C   0  0  0  0  0
   -1.9960   -2.7825   -3.1234 C   0  0  0  0  0
    2.2908    2.2248   -5.4009 C   0  0  0  0  0
    3.9038    4.3296   -3.0570 C   0  0  0  0  0
    2.9705    1.3833   -4.3751 C   0  0  0  0  0
    4.1889    2.8898   -2.7957 C   0  0  0  0  0
    0.9744    2.8386   -2.2339 N   0  0  0  0  0
   -1.1422    1.6030    0.5669 N   0  0  0  0  0
    3.0406    2.0666   -3.1028 N   0  0  0  0  0
    3.0777   -1.1268   -1.8997 O   0  0  0  0  0
    4.1847    0.2239   -0.4685 O   0  0  0  0  0
   -3.6851    1.6786    0.9939 O   0  0  0  0  0
   -2.8513    2.0547   -1.3433 O   0  0  0  0  0
   -2.7288    1.3693   -0.0625 S   0  0  0  0  0
  1  7  1  0  0  0
  2 10  1  0  0  0
  3  9  1  0  0  0
  4  8  1  0  0  0
  5 19  1  0  0  0
  6 11  1  0  0  0
  6 12  1  0  0  0
  9 20  1  0  0  0
 11 21  1  0  0  0
 12 22  1  0  0  0
 13  7  1  0  0  0
 14  8  1  0  0  0
 15 17  1  0  0  0
 16 18  1  0  0  0
 17 21  1  0  0  0
 18 21  1  0  0  0
 26 10  1  0  0  0
 26 20  1  0  0  0
  1  2  2  0  0  0
  3  6  2  0  0  0
  4 10  2  0  0  0
  5  9  2  0  0  0
  7  8  2  0  0  0
 11 19  2  0  0  0
 12 23  2  0  0  0
 26 24  2  0  0  0
 26 25  2  0  0  0
M  CHG  1  22  -1
M  END
> <rmsd>
0.695604444

$$$$
ZINC35397654


 26 27  0  0  0  0  0  0  0  0999 V2000
   -3.5692   -2.5605    0.5534 C   0  0  0  0  0
   -3.3974   -1.1895    0.7442 C   0  0  0  0  0
    0.8689    0.4552   -0.6672 C   0  0  0  0  0
   -2.7418   -0.9499   -1.5687 C   0  0  0  0  0
   -0.0893    2.4177   -1.6090 C   0  0  0  0  0
    1.8274    0.4766   -1.6742 C   0  0  0  0  0
   -3.3272   -3.1263   -0.6984 C   0  0  0  0  0
   -2.9135   -2.3209   -1.7595 C   0  0  0  0  0
   -0.1113    1.4406   -0.6269 C   0  0  0  0  0
   -2.9837   -0.3842   -0.3169 C   0  0  0  0  0
    1.7626    1.4967   -2.6095 C   0  0  0  0  0
    2.8646   -0.5685   -1.7146 C   0  0  0  0  0
   -3.5171   -4.5968   -0.8781 C   0  0  0  0  0
   -2.6470   -2.9042   -3.1082 C   0  0  0  0  0
    1.7941    1.7138   -5.8628 C   0  0  0  0  0
    3.7756    3.7120   -3.7165 C   0  0  0  0  0
    2.4965    0.8335   -4.8859 C   0  0  0  0  0
    3.9692    2.2574   -3.4533 C   0  0  0  0  0
    0.8257    2.4714   -2.6028 N   0  0  0  0  0
   -1.1163    1.4452    0.4018 N   0  0  0  0  0
    2.7364    1.5251   -3.6390 N   0  0  0  0  0
    2.6320   -1.6455   -2.3806 O   0  0  0  0  0
    3.9683   -0.3698   -1.0825 O   0  0  0  0  0
   -3.5956    1.7300    1.0549 O   0  0  0  0  0
   -2.9522    2.0083   -1.3551 O   0  0  0  0  0
   -2.7674    1.3316   -0.0772 S   0  0  0  0  0
  1  7  1  0  0  0
  2 10  1  0  0  0
  3  9  1  0  0  0
  4  8  1  0  0  0
  5 19  1  0  0  0
  6 11  1  0  0  0
  6 12  1  0  0  0
  9 20  1  0  0  0
 11 21  1  0  0  0
 12 22  1  0  0  0
 13  7  1  0  0  0
 14  8  1  0  0  0
 15 17  1  0  0  0
 16 18  1  0  0  0
 17 21  1  0  0  0
 18 21  1  0  0  0
 26 10  1  0  0  0
 26 20  1  0  0  0
  1  2  2  0  0  0
  3  6  2  0  0  0
  4 10  2  0  0  0
  5  9  2  0  0  0
  7  8  2  0  0  0
 11 19  2  0  0  0
 12 23  2  0  0  0
 26 24  2  0  0  0
 26 25  2  0  0  0
M  CHG  1  22  -1
M  END
> <rmsd>
0.513281584

$$$$
ZINC66398490


 27 29  0  0  0  0  0  0  0  0999 V2000
   -3.0361    2.1936    0.7898 C   0  0  0  0  0
    0.1449    5.5811    2.7502 C   0  0  0  0  0
    0.2351    4.2493    3.1546 C   0  0  0  0  0
   -3.9183   -1.3907   -1.2203 C   0  0  0  0  0
   -2.6566   -1.4354   -1.8132 C   0  0  0  0  0
   -0.5294    5.9087    1.5739 C   0  0  0  0  0
   -0.3488    3.2448    2.3826 C   0  0  0  0  0
   -4.0785   -1.7814    0.1091 C   0  0  0  0  0
   -1.7151   -2.2617    0.2527 C   0  0  0  0  0
   -1.5549   -1.8710   -1.0768 C   0  0  0  0  0
   -2.9768   -2.2168    0.8456 C   0  0  0  0  0
   -1.1132    4.9043    0.8018 C   0  0  0  0  0
   -1.0229    3.5724    1.2062 C   0  0  0  0  0
   -0.2505   -1.9179   -1.6906 C   0  0  0  0  0
    1.8482   -1.5398   -2.0926 C   0  0  0  0  0
    0.2125    1.0143   -0.4009 C   0  0  0  0  0
   -3.1488   -2.6340    2.2672 C   0  0  0  0  0
   -1.8286    5.2787   -0.4547 C   0  0  0  0  0
    0.8550   -0.3247   -0.1083 C   0  0  0  0  0
   -1.6479    2.4657    0.3859 C   0  0  0  0  0
   -4.1321    1.9792    1.1053 N   0  0  0  0  0
    0.0828   -2.6254   -2.7464 N   0  0  0  0  0
    1.4181   -2.3848   -3.0022 N   0  0  0  0  0
    0.8306   -1.2190   -1.2462 N   0  0  0  0  0
   -0.8553    1.2596    0.4500 N   0  0  0  0  0
    0.6006    1.7724   -1.2857 O   0  0  0  0  0
    3.4268   -0.9303   -1.9709 S   0  0  0  0  0
  2  3  1  0  0  0
  4  5  1  0  0  0
  6 12  1  0  0  0
  7 13  1  0  0  0
  8 11  1  0  0  0
  9 10  1  0  0  0
 10 14  1  0  0  0
 14 24  1  0  0  0
 15 23  1  0  0  0
 15 24  1  0  0  0
 16 25  1  0  0  0
 17 11  1  0  0  0
 18 12  1  0  0  0
 19 16  1  0  0  0
 19 24  1  0  0  0
 20  1  1  0  0  0
 20 13  1  0  0  0
 20 25  1  0  0  0
 22 23  1  0  0  0
  2  6  2  0  0  0
  3  7  2  0  0  0
  4  8  2  0  0  0
  5 10  2  0  0  0
  9 11  2  0  0  0
 12 13  2  0  0  0
 14 22  2  0  0  0
 15 27  2  0  0  0
 16 26  2  0  0  0
  1 21  3  0  0  0
M  CHG  1  27  -1
M  END
> <rmsd>
0.651536107

$$$$
ZINC35685482


 25 27  0  0  0  0  0  0  0  0999 V2000
   -2.8170   -0.1202   -3.4465 C   0  0  0  0  0
   -3.8202   -3.4503   -0.0443 C   0  0  0  0  0
   -3.1331   -1.4336   -3.0984 C   0  0  0  0  0
   -3.6384   -3.1106   -1.3852 C   0  0  0  0  0
    1.6916   -0.3969   -0.6913 C   0  0  0  0  0
    0.5827   -0.0608    0.0853 C   0  0  0  0  0
   -2.6832    0.8499   -2.4576 C   0  0  0  0  0
   -3.6863   -2.4803    0.9447 C   0  0  0  0  0
    0.4784    2.0966   -0.9974 C   0  0  0  0  0
   -3.3197   -1.7935   -1.7538 C   0  0  0  0  0
   -3.1837   -0.8070   -0.7481 C   0  0  0  0  0
    2.1938    0.5138   -1.6208 C   0  0  0  0  0
   -0.0239    1.1859   -0.0677 C   0  0  0  0  0
    1.5873    1.7605   -1.7740 C   0  0  0  0  0
   -2.8651    0.5102   -1.1167 C   0  0  0  0  0
   -3.3702   -1.1668    0.5966 C   0  0  0  0  0
    3.3665    0.1423   -2.4329 C   0  0  0  0  0
   -1.1670    1.5325    0.7332 N   0  0  0  0  0
    3.8955   -1.0179   -2.2593 O   0  0  0  0  0
    3.8204    0.9912   -3.2870 O   0  0  0  0  0
   -3.7163    1.8843    0.9112 O   0  0  0  0  0
   -2.4665    3.0793   -0.9079 O   0  0  0  0  0
    2.0638    2.6638   -2.6762 O   0  0  0  0  0
   -2.6421    1.9064   -0.0680 S   0  0  0  0  0
   -3.2578   -0.1471    1.9986 Cl  0  0  0  0  0
  1  3  1  0  0  0
  2  8  1  0  0  0
  4 10  1  0  0  0
  5 12  1  0  0  0
  6 13  1  0  0  0
  7 15  1  0  0  0
  9 14  1  0  0  0
 10 11  1  0  0  0
 11 16  1  0  0  0
 12 17  1  0  0  0
 13 18  1  0  0  0
 14 23  1  0  0  0
 16 25  1  0  0  0
 17 19  1  0  0  0
 24 15  1  0  0  0
 24 18  1  0  0  0
  1  7  2  0  0  0
  2  4  2  0  0  0
  3 10  2  0  0  0
  5  6  2  0  0  0
  8 16  2  0  0  0
  9 13  2  0  0  0
 11 15  2  0  0  0
 12 14  2  0  0  0
 17 20  2  0  0  0
 24 21  2  0  0  0
 24 22  2  0  0  0
M  CHG  1  19  -1
M  END
> <rmsd>
0.516326725

$$$$
ZINC64982828


 26 27  0  0  0  0  0  0  0  0999 V2000
   -4.6493   -2.2778   -0.7451 C   0  0  0  0  0
   -3.4848   -2.0877   -0.0013 C   0  0  0  0  0
   -5.5914   -1.2535   -0.8399 C   0  0  0  0  0
   -0.0752    1.7746   -2.3092 C   0  0  0  0  0
   -3.2625   -0.8733    0.6482 C   0  0  0  0  0
    0.8410    1.7371   -3.3601 C   0  0  0  0  0
    1.6361    1.0010   -0.7894 C   0  0  0  0  0
   -5.3692   -0.0392   -0.1905 C   0  0  0  0  0
    0.3223    1.4066   -1.0238 C   0  0  0  0  0
    2.5525    0.9635   -1.8404 C   0  0  0  0  0
   -4.2046    0.1509    0.5535 C   0  0  0  0  0
    2.1549    1.3316   -3.1258 C   0  0  0  0  0
   -1.9477    1.8149   -0.0139 C   0  0  0  0  0
   -2.5548    3.0495    2.0995 C   0  0  0  0  0
   -7.5959    0.5967   -1.1819 C   0  0  0  0  0
   -5.7811    2.3261   -0.9539 C   0  0  0  0  0
   -7.0119    1.5216    1.0510 C   0  0  0  0  0
   -2.6109    1.7222    1.3579 C   0  0  0  0  0
   -6.4192    1.0782   -0.3058 C   0  0  0  0  0
   -0.6078    1.4454    0.0424 N   0  0  0  0  0
    3.8839    0.5434   -1.5621 N   0  0  0  0  0
    4.1651   -0.6742   -1.6539 O   0  0  0  0  0
   -2.5820    2.1647   -1.0053 O   0  0  0  0  0
    4.7332    1.4043   -1.2342 O   0  0  0  0  0
   -3.9725    1.3306    1.1945 O   0  0  0  0  0
    3.2527    1.3021   -4.4608 Cl  0  0  0  0  0
  1  2  1  0  0  0
  3  8  1  0  0  0
  4  9  1  0  0  0
  5 11  1  0  0  0
  6 12  1  0  0  0
  7 10  1  0  0  0
  9 20  1  0  0  0
 10 21  1  0  0  0
 11 25  1  0  0  0
 12 26  1  0  0  0
 13 20  1  0  0  0
 14 18  1  0  0  0
 15 19  1  0  0  0
 16 19  1  0  0  0
 17 19  1  0  0  0
 18 13  1  0  0  0
 18 25  1  0  0  0
 19  8  1  0  0  0
 21 22  1  0  0  0
  1  3  2  0  0  0
  2  5  2  0  0  0
  4  6  2  0  0  0
  7  9  2  0  0  0
  8 11  2  0  0  0
 10 12  2  0  0  0
 13 23  2  0  0  0
 21 24  2  0  0  0
M  CHG  2  21   1  22  -1
M  END
> <rmsd>
0.684832454

$$$$
ZINC01128680


 23 24  0  0  0  0  0  0  0  0999 V2000
    1.6769    2.5936   -1.4129 C   0  0  0  0  0
    0.5293    2.6322   -0.6210 C   0  0  0  0  0
    2.2984    1.3741   -1.6814 C   0  0  0  0  0
   -2.9255   -2.3195   -1.6823 C   0  0  0  0  0
   -2.8033   -0.9428   -1.4942 C   0  0  0  0  0
    0.6248    0.2315   -0.3658 C   0  0  0  0  0
    0.0033    1.4511   -0.0974 C   0  0  0  0  0
    1.7724    0.1931   -1.1579 C   0  0  0  0  0
   -3.1207   -3.1588   -0.5855 C   0  0  0  0  0
   -2.8762   -0.4054   -0.2091 C   0  0  0  0  0
   -3.1936   -2.6214    0.6996 C   0  0  0  0  0
   -3.0714   -1.2447    0.8879 C   0  0  0  0  0
   -2.0323   -5.2638   -0.7865 C   0  0  0  0  0
   -1.1712    1.4909    0.7134 N   0  0  0  0  0
    2.4050   -1.0481   -1.4323 N   0  0  0  0  0
    3.4357   -1.0603   -2.1479 O   0  0  0  0  0
    1.9164   -2.0993   -0.9517 O   0  0  0  0  0
   -3.7377    1.7848    0.8803 O   0  0  0  0  0
   -2.6587    1.9139   -1.3822 O   0  0  0  0  0
   -3.2356   -4.4995   -0.8067 O   0  0  0  0  0
   -2.7104    1.3493   -0.0473 S   0  0  0  0  0
   -3.4367   -3.7027    2.0350 Cl  0  0  0  0  0
   -3.1609   -0.5607    2.4822 Cl  0  0  0  0  0
  1  3  1  0  0  0
  2  7  1  0  0  0
  4  9  1  0  0  0
  5 10  1  0  0  0
  6  8  1  0  0  0
  7 14  1  0  0  0
  8 15  1  0  0  0
  9 20  1  0  0  0
 11 12  1  0  0  0
 11 22  1  0  0  0
 12 23  1  0  0  0
 13 20  1  0  0  0
 15 16  1  0  0  0
 21 10  1  0  0  0
 21 14  1  0  0  0
  1  2  2  0  0  0
  3  8  2  0  0  0
  4  5  2  0  0  0
  6  7  2  0  0  0
  9 11  2  0  0  0
 10 12  2  0  0  0
 15 17  2  0  0  0
 21 18  2  0  0  0
 21 19  2  0  0  0
M  CHG  2  15   1  16  -1
M  END
> <rmsd>
0.560982287

$$$$
ZINC01117398


 20 21  0  0  0  0  0  0  0  0999 V2000
    0.7866    2.5536   -2.6139 C   0  0  0  0  0
   -0.1341    2.5146   -1.5670 C   0  0  0  0  0
    1.6195    1.4601   -2.8514 C   0  0  0  0  0
   -3.4367   -1.0687   -1.5273 C   0  0  0  0  0
   -3.6059   -2.4577   -1.2586 C   0  0  0  0  0
    0.6109    0.2888   -0.9945 C   0  0  0  0  0
   -0.2221    1.3823   -0.7572 C   0  0  0  0  0
    1.5317    0.3277   -2.0416 C   0  0  0  0  0
   -3.1552   -0.3512   -0.3856 C   0  0  0  0  0
   -3.4470   -2.7489    0.0785 C   0  0  0  0  0
    0.5119   -0.9245   -0.1217 C   0  0  0  0  0
   -1.1737    1.3642    0.3105 N   0  0  0  0  0
    2.3925   -0.7740   -2.3035 N   0  0  0  0  0
    3.5104   -0.8169   -1.7378 O   0  0  0  0  0
    2.0073   -1.6693   -3.0919 O   0  0  0  0  0
   -3.6076    1.7182    1.1107 O   0  0  0  0  0
   -3.0764    2.0847   -1.3148 O   0  0  0  0  0
   -3.0956   -1.3512    1.0032 S   0  0  0  0  0
   -2.8512    1.3646   -0.0761 S   0  0  0  0  0
   -3.5984   -4.4892    0.8240 Br  0  0  0  0  0
  1  2  1  0  0  0
  3  8  1  0  0  0
  4  5  1  0  0  0
  6  7  1  0  0  0
  7 12  1  0  0  0
  8 13  1  0  0  0
  9 18  1  0  0  0
 10 18  1  0  0  0
 10 20  1  0  0  0
 11  6  1  0  0  0
 13 14  1  0  0  0
 19  9  1  0  0  0
 19 12  1  0  0  0
  1  3  2  0  0  0
  2  7  2  0  0  0
  4  9  2  0  0  0
  5 10  2  0  0  0
  6  8  2  0  0  0
 13 15  2  0  0  0
 19 16  2  0  0  0
 19 17  2  0  0  0
M  CHG  2  13   1  14  -1
M  END
> <rmsd>
0.371917784

$$$$
ZINC01117398


 20 21  0  0  0  0  0  0  0  0999 V2000
    0.6402    2.3622   -2.7877 C   0  0  0  0  0
   -0.2450    2.3909   -1.7103 C   0  0  0  0  0
    1.4961    1.2741   -2.9586 C   0  0  0  0  0
   -3.4725   -1.4236    0.7211 C   0  0  0  0  0
   -3.5722   -2.7043    0.1045 C   0  0  0  0  0
    0.5814    0.2433   -0.9741 C   0  0  0  0  0
   -0.2745    1.3315   -0.8034 C   0  0  0  0  0
    1.4667    0.2146   -2.0517 C   0  0  0  0  0
   -3.1433   -0.4380   -0.1831 C   0  0  0  0  0
   -3.3156   -2.6486   -1.2478 C   0  0  0  0  0
    0.5453   -0.8916    0.0029 C   0  0  0  0  0
   -1.1905    1.3820    0.2940 N   0  0  0  0  0
    2.3499   -0.8832   -2.2472 N   0  0  0  0  0
    3.4861   -0.8479   -1.7186 O   0  0  0  0  0
    1.9654   -1.8534   -2.9417 O   0  0  0  0  0
   -3.6066    1.7414    1.1439 O   0  0  0  0  0
   -3.1641    1.9089   -1.3210 O   0  0  0  0  0
   -2.9560   -1.0574   -1.7686 S   0  0  0  0  0
   -2.8788    1.3055   -0.0333 S   0  0  0  0  0
   -3.3507   -4.1501   -2.4104 Br  0  0  0  0  0
  1  2  1  0  0  0
  3  8  1  0  0  0
  4  5  1  0  0  0
  6  7  1  0  0  0
  7 12  1  0  0  0
  8 13  1  0  0  0
  9 18  1  0  0  0
 10 18  1  0  0  0
 10 20  1  0  0  0
 11  6  1  0  0  0
 13 14  1  0  0  0
 19  9  1  0  0  0
 19 12  1  0  0  0
  1  3  2  0  0  0
  2  7  2  0  0  0
  4  9  2  0  0  0
  5 10  2  0  0  0
  6  8  2  0  0  0
 13 15  2  0  0  0
 19 16  2  0  0  0
 19 17  2  0  0  0
M  CHG  2  13   1  14  -1
M  END
> <rmsd>
0.420194

$$$$
ZINC00799658


 26 28  0  0  0  0  0  0  0  0999 V2000
   -3.5578   -2.5634    0.5429 C   0  0  0  0  0
   -3.3845   -1.1928    0.7375 C   0  0  0  0  0
    1.8187    1.4720   -2.6478 C   0  0  0  0  0
   -0.1290    2.4595   -1.6143 C   0  0  0  0  0
    0.8588    0.4661   -0.6721 C   0  0  0  0  0
   -2.7401   -0.9382   -1.5789 C   0  0  0  0  0
    0.8402    2.4656   -2.6174 C   0  0  0  0  0
    1.8279    0.4722   -1.6752 C   0  0  0  0  0
   -0.1197    1.4597   -0.6416 C   0  0  0  0  0
   -3.3296   -3.1198   -0.7160 C   0  0  0  0  0
   -2.8999   -2.3109   -1.7710 C   0  0  0  0  0
   -2.9813   -0.3808   -0.3229 C   0  0  0  0  0
    0.8305    3.5205   -3.6439 C   0  0  0  0  0
    2.8606   -0.5764   -1.7075 C   0  0  0  0  0
   -3.6125   -4.8619   -2.2229 C   0  0  0  0  0
   -2.4870   -4.2258   -3.0152 C   0  0  0  0  0
   -1.1183    1.4542    0.3933 N   0  0  0  0  0
   -0.0839    4.4259   -3.5933 O   0  0  0  0  0
    2.8469   -1.4877   -0.7976 O   0  0  0  0  0
    1.7366    3.5032   -4.5588 O   0  0  0  0  0
    3.7437   -0.5477   -2.6443 O   0  0  0  0  0
   -3.5948    1.7234    1.0634 O   0  0  0  0  0
   -2.9680    2.0171   -1.3491 O   0  0  0  0  0
   -3.5362   -4.4679   -0.8502 O   0  0  0  0  0
   -2.6279   -2.8026   -3.0210 O   0  0  0  0  0
   -2.7718    1.3351   -0.0758 S   0  0  0  0  0
  1  2  1  0  0  0
  3  7  1  0  0  0
  4  9  1  0  0  0
  5  8  1  0  0  0
  6 12  1  0  0  0
  7 13  1  0  0  0
  8 14  1  0  0  0
  9 17  1  0  0  0
 10 11  1  0  0  0
 10 24  1  0  0  0
 11 25  1  0  0  0
 13 18  1  0  0  0
 14 19  1  0  0  0
 15 16  1  0  0  0
 15 24  1  0  0  0
 16 25  1  0  0  0
 26 12  1  0  0  0
 26 17  1  0  0  0
  1 10  2  0  0  0
  2 12  2  0  0  0
  3  8  2  0  0  0
  4  7  2  0  0  0
  5  9  2  0  0  0
  6 11  2  0  0  0
 13 20  2  0  0  0
 14 21  2  0  0  0
 26 22  2  0  0  0
 26 23  2  0  0  0
M  CHG  2  18  -1  19  -1
M  END
> <rmsd>
0.519823194

$$$$
ZINC00799658


 26 28  0  0  0  0  0  0  0  0999 V2000
   -2.9064   -2.3105   -1.7764 C   0  0  0  0  0
   -2.7453   -0.9390   -1.5776 C   0  0  0  0  0
    1.8176    1.4702   -2.6492 C   0  0  0  0  0
   -0.1300    2.4582   -1.6158 C   0  0  0  0  0
    0.8587    0.4660   -0.6720 C   0  0  0  0  0
   -3.3886   -1.1922    0.7393 C   0  0  0  0  0
    0.8388    2.4636   -2.6193 C   0  0  0  0  0
    1.8275    0.4714   -1.6755 C   0  0  0  0  0
   -0.1200    1.4593   -0.6421 C   0  0  0  0  0
   -3.3013   -3.1239   -0.7139 C   0  0  0  0  0
   -3.5634   -2.5617    0.5380 C   0  0  0  0  0
   -2.9810   -0.3817   -0.3205 C   0  0  0  0  0
    0.8284    3.5175   -3.6469 C   0  0  0  0  0
    2.8605   -0.5770   -1.7072 C   0  0  0  0  0
   -3.4876   -5.2311    0.2407 C   0  0  0  0  0
   -4.4574   -4.5930    1.2161 C   0  0  0  0  0
   -1.1182    1.4546    0.3932 N   0  0  0  0  0
   -0.0863    4.4227   -3.5968 O   0  0  0  0  0
    2.8474   -1.4873   -0.7964 O   0  0  0  0  0
    1.7342    3.4995   -4.5621 O   0  0  0  0  0
    3.7432   -0.5489   -2.6444 O   0  0  0  0  0
   -3.5945    1.7238    1.0640 O   0  0  0  0  0
   -2.9688    2.0152   -1.3490 O   0  0  0  0  0
   -3.4229   -4.4656   -0.9659 O   0  0  0  0  0
   -3.9853   -3.3022    1.6112 O   0  0  0  0  0
   -2.7719    1.3346   -0.0752 S   0  0  0  0  0
  1  2  1  0  0  0
  3  7  1  0  0  0
  4  9  1  0  0  0
  5  8  1  0  0  0
  6 12  1  0  0  0
  7 13  1  0  0  0
  8 14  1  0  0  0
  9 17  1  0  0  0
 10 11  1  0  0  0
 10 24  1  0  0  0
 11 25  1  0  0  0
 13 18  1  0  0  0
 14 19  1  0  0  0
 15 16  1  0  0  0
 15 24  1  0  0  0
 16 25  1  0  0  0
 26 12  1  0  0  0
 26 17  1  0  0  0
  1 10  2  0  0  0
  2 12  2  0  0  0
  3  8  2  0  0  0
  4  7  2  0  0  0
  5  9  2  0  0  0
  6 11  2  0  0  0
 13 20  2  0  0  0
 14 21  2  0  0  0
 26 22  2  0  0  0
 26 23  2  0  0  0
M  CHG  2  18  -1  19  -1
M  END
> <rmsd>
0.520876527

$$$$
ZINC64475562


 26 27  0  0  0  0  0  0  0  0999 V2000
    1.0380    2.8550   -2.1960 C   0  0  0  0  0
   -0.0220    2.7459   -1.2960 C   0  0  0  0  0
   -3.2559   -2.5893    0.4390 C   0  0  0  0  0
   -2.4285   -2.2496   -1.8054 C   0  0  0  0  0
   -3.2123   -1.2133    0.6633 C   0  0  0  0  0
   -2.3848   -0.8736   -1.5810 C   0  0  0  0  0
    1.0010    0.7822   -0.3292 C   0  0  0  0  0
    2.0796    1.9277   -2.1626 C   0  0  0  0  0
   -2.8640   -3.1074   -0.7954 C   0  0  0  0  0
   -0.0405    1.7096   -0.3626 C   0  0  0  0  0
    2.0610    0.8913   -1.2294 C   0  0  0  0  0
   -2.7767   -0.3553   -0.3466 C   0  0  0  0  0
   -2.5568   -5.1850   -2.1850 C   0  0  0  0  0
    2.8158    1.5939   -4.5361 C   0  0  0  0  0
   -2.4181   -7.4735   -3.2570 C   0  0  0  0  0
    3.2009    2.0733   -3.1404 C   0  0  0  0  0
   -2.7552   -6.6828   -2.0057 C   0  0  0  0  0
   -2.9079   -4.4836   -1.0202 N   0  0  0  0  0
   -1.1266    1.5975    0.5576 N   0  0  0  0  0
    3.1114   -0.0663   -1.1787 N   0  0  0  0  0
    3.0161   -1.1071   -1.8710 O   0  0  0  0  0
   -2.1401   -4.7051   -3.2340 O   0  0  0  0  0
    4.1015    0.1589   -0.4435 O   0  0  0  0  0
   -3.6772    1.6750    0.9922 O   0  0  0  0  0
   -2.8452    2.0531   -1.3454 O   0  0  0  0  0
   -2.7209    1.3905   -0.0614 S   0  0  0  0  0
  1  8  1  0  0  0
  2 10  1  0  0  0
  3  9  1  0  0  0
  4  6  1  0  0  0
  5 12  1  0  0  0
  7 11  1  0  0  0
  9 18  1  0  0  0
 10 19  1  0  0  0
 11 20  1  0  0  0
 13 18  1  0  0  0
 14 16  1  0  0  0
 15 17  1  0  0  0
 16  8  1  0  0  0
 17 13  1  0  0  0
 20 21  1  0  0  0
 26 12  1  0  0  0
 26 19  1  0  0  0
  1  2  2  0  0  0
  3  5  2  0  0  0
  4  9  2  0  0  0
  6 12  2  0  0  0
  7 10  2  0  0  0
  8 11  2  0  0  0
 13 22  2  0  0  0
 20 23  2  0  0  0
 26 24  2  0  0  0
 26 25  2  0  0  0
M  CHG  2  20   1  21  -1
M  END
> <rmsd>
0.707388639

$$$$
ZINC64475562


 26 27  0  0  0  0  0  0  0  0999 V2000
    1.0374    2.8548   -2.1970 C   0  0  0  0  0
   -0.0224    2.7459   -1.2968 C   0  0  0  0  0
   -2.4292   -2.2492   -1.8051 C   0  0  0  0  0
   -3.2564   -2.5894    0.4392 C   0  0  0  0  0
   -2.3852   -0.8734   -1.5804 C   0  0  0  0  0
   -3.2122   -1.2134    0.6640 C   0  0  0  0  0
    1.0009    0.7826   -0.3295 C   0  0  0  0  0
    2.0791    1.9277   -2.1635 C   0  0  0  0  0
   -2.8649   -3.1072   -0.7954 C   0  0  0  0  0
   -0.0407    1.7099   -0.3630 C   0  0  0  0  0
    2.0608    0.8916   -1.2298 C   0  0  0  0  0
   -2.7766   -0.3554   -0.3458 C   0  0  0  0  0
   -3.3146   -5.4954   -0.1346 C   0  0  0  0  0
    2.8149    1.5931   -4.5369 C   0  0  0  0  0
   -3.6059   -7.9926    0.1565 C   0  0  0  0  0
    3.2002    2.0731   -3.1414 C   0  0  0  0  0
   -3.2079   -6.8679   -0.7824 C   0  0  0  0  0
   -2.9090   -4.4835   -1.0198 N   0  0  0  0  0
   -1.1266    1.5980    0.5574 N   0  0  0  0  0
    3.1113   -0.0659   -1.1790 N   0  0  0  0  0
    3.0160   -1.1069   -1.8710 O   0  0  0  0  0
   -3.7110   -5.3486    1.0169 O   0  0  0  0  0
    4.1015    0.1597   -0.4440 O   0  0  0  0  0
   -3.6771    1.6754    0.9924 O   0  0  0  0  0
   -2.8456    2.0528   -1.3455 O   0  0  0  0  0
   -2.7210    1.3906   -0.0612 S   0  0  0  0  0
  1  8  1  0  0  0
  2 10  1  0  0  0
  3  9  1  0  0  0
  4  6  1  0  0  0
  5 12  1  0  0  0
  7 11  1  0  0  0
  9 18  1  0  0  0
 10 19  1  0  0  0
 11 20  1  0  0  0
 13 18  1  0  0  0
 14 16  1  0  0  0
 15 17  1  0  0  0
 16  8  1  0  0  0
 17 13  1  0  0  0
 20 21  1  0  0  0
 26 12  1  0  0  0
 26 19  1  0  0  0
  1  2  2  0  0  0
  3  5  2  0  0  0
  4  9  2  0  0  0
  6 12  2  0  0  0
  7 10  2  0  0  0
  8 11  2  0  0  0
 13 22  2  0  0  0
 20 23  2  0  0  0
 26 24  2  0  0  0
 26 25  2  0  0  0
M  CHG  2  20   1  21  -1
M  END
> <rmsd>
0.707321525

$$$$
ZINC33253634


 26 27  0  0  0  0  0  0  0  0999 V2000
   -0.1068    2.5013   -1.5742 C   0  0  0  0  0
    0.8687    2.5243   -2.5707 C   0  0  0  0  0
   -2.9070   -2.3068   -1.7781 C   0  0  0  0  0
   -3.5399   -2.5660    0.5391 C   0  0  0  0  0
   -2.7428   -0.9359   -1.5799 C   0  0  0  0  0
   -3.3759   -1.1951    0.7373 C   0  0  0  0  0
    0.8578    0.4764   -0.6764 C   0  0  0  0  0
    1.8335    0.4993   -1.6730 C   0  0  0  0  0
   -0.1124    1.4774   -0.6269 C   0  0  0  0  0
    1.8389    1.5234   -2.6202 C   0  0  0  0  0
   -3.3055   -3.1219   -0.7185 C   0  0  0  0  0
   -2.9773   -0.3801   -0.3222 C   0  0  0  0  0
    2.8484   -0.5706   -1.7025 C   0  0  0  0  0
    3.9025    3.7322   -3.6470 C   0  0  0  0  0
    1.8978    1.7881   -5.8701 C   0  0  0  0  0
   -3.2084   -4.9616   -2.2225 C   0  0  0  0  0
    4.0658    2.2669   -3.4253 C   0  0  0  0  0
    2.5890    0.8914   -4.9001 C   0  0  0  0  0
   -1.1117    1.4538    0.3925 N   0  0  0  0  0
    2.8177    1.5640   -3.6381 N   0  0  0  0  0
    2.6039   -1.6337   -2.3841 O   0  0  0  0  0
    3.9413   -0.4021   -1.0452 O   0  0  0  0  0
   -3.5974    1.7228    1.0630 O   0  0  0  0  0
   -2.9651    2.0181   -1.3479 O   0  0  0  0  0
   -3.4653   -4.4596   -0.9119 O   0  0  0  0  0
   -2.7682    1.3594   -0.0709 S   0  0  0  0  0
  1  9  1  0  0  0
  2 10  1  0  0  0
  3 11  1  0  0  0
  4  6  1  0  0  0
  5 12  1  0  0  0
  7  8  1  0  0  0
  8 13  1  0  0  0
  9 19  1  0  0  0
 10 20  1  0  0  0
 11 25  1  0  0  0
 13 21  1  0  0  0
 14 17  1  0  0  0
 15 18  1  0  0  0
 16 25  1  0  0  0
 17 20  1  0  0  0
 18 20  1  0  0  0
 26 12  1  0  0  0
 26 19  1  0  0  0
  1  2  2  0  0  0
  3  5  2  0  0  0
  4 11  2  0  0  0
  6 12  2  0  0  0
  7  9  2  0  0  0
  8 10  2  0  0  0
 13 22  2  0  0  0
 26 23  2  0  0  0
 26 24  2  0  0  0
M  CHG  1  21  -1
M  END
> <rmsd>
0.526248932

$$$$
ZINC33253634


 26 27  0  0  0  0  0  0  0  0999 V2000
   -0.0381    2.7671   -1.2901 C   0  0  0  0  0
    1.0211    2.8838   -2.1900 C   0  0  0  0  0
   -2.4210   -2.2380   -1.8112 C   0  0  0  0  0
   -3.2443   -2.5884    0.4330 C   0  0  0  0  0
   -2.3841   -0.8625   -1.5830 C   0  0  0  0  0
   -3.2075   -1.2128    0.6612 C   0  0  0  0  0
    0.9949    0.8061   -0.3285 C   0  0  0  0  0
    2.0541    0.9228   -1.2285 C   0  0  0  0  0
   -0.0513    1.7283   -0.3592 C   0  0  0  0  0
    2.0673    1.9617   -2.1593 C   0  0  0  0  0
   -2.8510   -3.1010   -0.8032 C   0  0  0  0  0
   -2.7775   -0.3499   -0.3467 C   0  0  0  0  0
    3.1483   -0.0649   -1.1745 C   0  0  0  0  0
    4.0376    4.3418   -2.9621 C   0  0  0  0  0
    2.4071    2.2908   -5.3860 C   0  0  0  0  0
   -2.4705   -4.8993   -2.3122 C   0  0  0  0  0
    4.2941    2.8897   -2.7427 C   0  0  0  0  0
    3.0733    1.4321   -4.3655 C   0  0  0  0  0
   -1.1361    1.6087    0.5613 N   0  0  0  0  0
    3.1301    2.0967   -3.0800 N   0  0  0  0  0
    3.0524   -1.1308   -1.8881 O   0  0  0  0  0
    4.1587    0.1751   -0.4153 O   0  0  0  0  0
   -3.6868    1.6727    0.9978 O   0  0  0  0  0
   -2.8582    2.0608   -1.3394 O   0  0  0  0  0
   -2.8867   -4.4432   -1.0259 O   0  0  0  0  0
   -2.7298    1.3955   -0.0571 S   0  0  0  0  0
  1  9  1  0  0  0
  2 10  1  0  0  0
  3 11  1  0  0  0
  4  6  1  0  0  0
  5 12  1  0  0  0
  7  8  1  0  0  0
  8 13  1  0  0  0
  9 19  1  0  0  0
 10 20  1  0  0  0
 11 25  1  0  0  0
 13 21  1  0  0  0
 14 17  1  0  0  0
 15 18  1  0  0  0
 16 25  1  0  0  0
 17 20  1  0  0  0
 18 20  1  0  0  0
 26 12  1  0  0  0
 26 19  1  0  0  0
  1  2  2  0  0  0
  3  5  2  0  0  0
  4 11  2  0  0  0
  6 12  2  0  0  0
  7  9  2  0  0  0
  8 10  2  0  0  0
 13 22  2  0  0  0
 26 23  2  0  0  0
 26 24  2  0  0  0
M  CHG  1  21  -1
M  END
> <rmsd>
0.707506835

$$$$
ZINC03616634


 26 28  0  0  0  0  0  0  0  0999 V2000
   -3.2999   -2.2331   -1.1290 C   0  0  0  0  0
   -2.7571   -2.1278    0.1515 C   0  0  0  0  0
   -4.0486   -1.1817   -1.6579 C   0  0  0  0  0
   -2.9631   -0.9710    0.9033 C   0  0  0  0  0
   -4.2546   -0.0250   -0.9062 C   0  0  0  0  0
   -3.7118    0.0804    0.3744 C   0  0  0  0  0
    1.4858    1.0728   -0.7891 C   0  0  0  0  0
    3.2960   -0.4677   -2.7601 C   0  0  0  0  0
   -1.9596    2.3395    0.2772 C   0  0  0  0  0
    0.2279    1.9576   -0.8400 C   0  0  0  0  0
    1.9607    0.1586   -3.1042 C   0  0  0  0  0
   -0.0558    1.2793   -2.1886 C   0  0  0  0  0
    2.0163    1.4562   -3.9347 C   0  0  0  0  0
    2.1831    1.1497   -5.4265 C   0  0  0  0  0
    3.0968    2.4506   -3.4891 C   0  0  0  0  0
   -2.0083    3.9644    2.8841 C   0  0  0  0  0
   -3.1817    3.1479    2.3533 C   0  0  0  0  0
   -2.7602    1.9398    1.5114 C   0  0  0  0  0
    1.1293    0.4498   -1.9503 N   0  0  0  0  0
   -0.7158    1.7476    0.2543 N   0  0  0  0  0
    3.3337   -1.0871   -1.6610 O   0  0  0  0  0
    2.4671    1.0098   -0.0835 O   0  0  0  0  0
    4.2027   -0.2884   -3.6209 O   0  0  0  0  0
   -2.4123    3.0883   -0.5862 O   0  0  0  0  0
   -3.9143    1.2182    1.1139 O   0  0  0  0  0
    0.3590    2.2718   -3.6779 S   0  0  0  0  0
  1  2  1  0  0  0
  3  5  1  0  0  0
  4  6  1  0  0  0
  6 25  1  0  0  0
  7 19  1  0  0  0
  8 21  1  0  0  0
  9 20  1  0  0  0
 10  7  1  0  0  0
 10 12  1  0  0  0
 10 20  1  0  0  0
 11  8  1  0  0  0
 11 13  1  0  0  0
 11 19  1  0  0  0
 12 19  1  0  0  0
 12 26  1  0  0  0
 13 14  1  0  0  0
 13 15  1  0  0  0
 13 26  1  0  0  0
 16 17  1  0  0  0
 17 18  1  0  0  0
 18  9  1  0  0  0
 18 25  1  0  0  0
  1  3  2  0  0  0
  2  4  2  0  0  0
  5  6  2  0  0  0
  7 22  2  0  0  0
  8 23  2  0  0  0
  9 24  2  0  0  0
M  CHG  1  21  -1
M  END
> <rmsd>
0.479905009

$$$$
ZINC03645070


 26 28  0  0  0  0  0  0  0  0999 V2000
   -3.0075   -2.2192   -1.1977 C   0  0  0  0  0
   -2.5257   -2.1041    0.1063 C   0  0  0  0  0
   -3.7921   -1.2033   -1.7435 C   0  0  0  0  0
   -2.8286   -0.9732    0.8644 C   0  0  0  0  0
   -4.0951   -0.0723   -0.9854 C   0  0  0  0  0
   -3.6132    0.0428    0.3186 C   0  0  0  0  0
   -0.0751    1.5082   -2.0571 C   0  0  0  0  0
    2.5040   -1.0346   -2.7845 C   0  0  0  0  0
   -1.9902    2.3983    0.3275 C   0  0  0  0  0
    0.2590    2.1591   -0.7002 C   0  0  0  0  0
    1.9706    0.3748   -2.9870 C   0  0  0  0  0
    1.4897    1.2366   -0.6890 C   0  0  0  0  0
    3.0543    1.4766   -2.8855 C   0  0  0  0  0
    2.6776    2.7010   -3.7375 C   0  0  0  0  0
    4.4592    1.0115   -3.2854 C   0  0  0  0  0
   -2.2406    3.9755    2.9520 C   0  0  0  0  0
   -3.3422    3.1030    2.3604 C   0  0  0  0  0
   -2.8178    1.9342    1.5207 C   0  0  0  0  0
    1.0046    0.6832   -1.9522 N   0  0  0  0  0
   -0.7153    1.8777    0.3504 N   0  0  0  0  0
    3.1226   -1.2264   -1.7011 O   0  0  0  0  0
   -0.8761    1.7059   -2.9420 O   0  0  0  0  0
    2.2583   -1.8348   -3.7302 O   0  0  0  0  0
   -2.4481    3.1343   -0.5440 O   0  0  0  0  0
   -3.9112    1.1553    1.0644 O   0  0  0  0  0
    3.0893    2.0256   -1.1067 S   0  0  0  0  0
  1  2  1  0  0  0
  3  5  1  0  0  0
  4  6  1  0  0  0
  6 25  1  0  0  0
  7 19  1  0  0  0
  8 21  1  0  0  0
  9 20  1  0  0  0
 10  7  1  0  0  0
 10 12  1  0  0  0
 10 20  1  0  0  0
 11  8  1  0  0  0
 11 13  1  0  0  0
 11 19  1  0  0  0
 12 19  1  0  0  0
 12 26  1  0  0  0
 13 14  1  0  0  0
 13 15  1  0  0  0
 13 26  1  0  0  0
 16 17  1  0  0  0
 17 18  1  0  0  0
 18  9  1  0  0  0
 18 25  1  0  0  0
  1  3  2  0  0  0
  2  4  2  0  0  0
  5  6  2  0  0  0
  7 22  2  0  0  0
  8 23  2  0  0  0
  9 24  2  0  0  0
M  CHG  1  21  -1
M  END
> <rmsd>
0.591031909

$$$$
ZINC72306291


 26 27  0  0  0  0  0  0  0  0999 V2000
   -3.7472   -2.5107    0.6627 C   0  0  0  0  0
   -2.8945   -2.3780   -1.5940 C   0  0  0  0  0
   -3.5594   -1.1369    0.8145 C   0  0  0  0  0
   -2.7067   -1.0041   -1.4422 C   0  0  0  0  0
    0.7462    0.2779   -0.3465 C   0  0  0  0  0
    2.0332    1.2527   -2.1438 C   0  0  0  0  0
    1.8150    0.2127   -1.2403 C   0  0  0  0  0
   -3.4147   -3.1313   -0.5415 C   0  0  0  0  0
   -0.1047    1.3833   -0.3561 C   0  0  0  0  0
    1.1824    2.3581   -2.1534 C   0  0  0  0  0
    0.1135    2.4234   -1.2596 C   0  0  0  0  0
   -3.0392   -0.3836   -0.2379 C   0  0  0  0  0
    2.7125   -0.9536   -1.2305 C   0  0  0  0  0
   -2.2931   -5.3499   -0.9574 C   0  0  0  0  0
   -4.6278   -4.9375   -1.8143 C   0  0  0  0  0
    0.7677    3.2661   -4.3120 C   0  0  0  0  0
   -0.3619    4.6019   -0.4326 C   0  0  0  0  0
   -3.6147   -4.6002   -0.7039 C   0  0  0  0  0
   -1.1956    1.4351    0.5667 N   0  0  0  0  0
    3.6918   -0.9892   -2.0664 O   0  0  0  0  0
    2.4894   -1.9007   -0.3867 O   0  0  0  0  0
   -3.7221    1.7976    0.9875 O   0  0  0  0  0
   -2.8614    1.9622   -1.3643 O   0  0  0  0  0
    1.4065    3.3671   -3.0408 O   0  0  0  0  0
   -0.7147    3.5072   -1.2745 O   0  0  0  0  0
   -2.8028    1.3600   -0.0463 S   0  0  0  0  0
  1  8  1  0  0  0
  2  4  1  0  0  0
  3 12  1  0  0  0
  5  9  1  0  0  0
  6  7  1  0  0  0
  7 13  1  0  0  0
  9 19  1  0  0  0
 10 11  1  0  0  0
 10 24  1  0  0  0
 11 25  1  0  0  0
 13 20  1  0  0  0
 14 18  1  0  0  0
 15 18  1  0  0  0
 16 24  1  0  0  0
 17 25  1  0  0  0
 18  8  1  0  0  0
 26 12  1  0  0  0
 26 19  1  0  0  0
  1  3  2  0  0  0
  2  8  2  0  0  0
  4 12  2  0  0  0
  5  7  2  0  0  0
  6 10  2  0  0  0
  9 11  2  0  0  0
 13 21  2  0  0  0
 26 22  2  0  0  0
 26 23  2  0  0  0
M  CHG  1  20  -1
M  END
> <rmsd>
0.422391832

$$$$
ZINC72306291


 26 27  0  0  0  0  0  0  0  0999 V2000
   -3.4538   -2.5772    0.5091 C   0  0  0  0  0
   -2.7585   -2.3009   -1.7881 C   0  0  0  0  0
   -3.3223   -1.2038    0.7142 C   0  0  0  0  0
   -2.6270   -0.9274   -1.5831 C   0  0  0  0  0
    0.8251    0.4783   -0.6486 C   0  0  0  0  0
    1.9431    1.5964   -2.4753 C   0  0  0  0  0
    1.8347    0.5073   -1.6105 C   0  0  0  0  0
   -3.1718   -3.1258   -0.7420 C   0  0  0  0  0
   -0.0764    1.5384   -0.5515 C   0  0  0  0  0
    1.0417    2.6564   -2.3782 C   0  0  0  0  0
    0.0320    2.6274   -1.4163 C   0  0  0  0  0
   -2.9090   -0.3789   -0.3319 C   0  0  0  0  0
    2.7858   -0.6111   -1.7134 C   0  0  0  0  0
   -1.9751   -5.2639   -1.3336 C   0  0  0  0  0
   -4.3781   -4.9328   -2.0200 C   0  0  0  0  0
    0.4431    3.6374   -4.4603 C   0  0  0  0  0
   -0.4917    4.7400   -0.4578 C   0  0  0  0  0
   -3.3115   -4.5943   -0.9613 C   0  0  0  0  0
   -1.1057    1.4935    0.4401 N   0  0  0  0  0
    3.7086   -0.5596   -2.6104 O   0  0  0  0  0
    2.6642   -1.6049   -0.9032 O   0  0  0  0  0
   -3.6135    1.7081    1.0371 O   0  0  0  0  0
   -2.9179    2.0208   -1.3541 O   0  0  0  0  0
    1.1585    3.7140   -3.2288 O   0  0  0  0  0
   -0.8464    3.6673   -1.3269 O   0  0  0  0  0
   -2.7442    1.3642   -0.0727 S   0  0  0  0  0
  1  8  1  0  0  0
  2  4  1  0  0  0
  3 12  1  0  0  0
  5  9  1  0  0  0
  6  7  1  0  0  0
  7 13  1  0  0  0
  9 19  1  0  0  0
 10 11  1  0  0  0
 10 24  1  0  0  0
 11 25  1  0  0  0
 13 20  1  0  0  0
 14 18  1  0  0  0
 15 18  1  0  0  0
 16 24  1  0  0  0
 17 25  1  0  0  0
 18  8  1  0  0  0
 26 12  1  0  0  0
 26 19  1  0  0  0
  1  3  2  0  0  0
  2  8  2  0  0  0
  4 12  2  0  0  0
  5  7  2  0  0  0
  6 10  2  0  0  0
  9 11  2  0  0  0
 13 21  2  0  0  0
 26 22  2  0  0  0
 26 23  2  0  0  0
M  CHG  1  20  -1
M  END
> <rmsd>
0.584402263

$$$$
ZINC35397632


 26 27  0  0  0  0  0  0  0  0999 V2000
   -2.9149   -2.3198   -1.7604 C   0  0  0  0  0
   -3.5689   -2.5609    0.5528 C   0  0  0  0  0
   -2.7427   -0.9489   -1.5690 C   0  0  0  0  0
   -3.3969   -1.1899    0.7443 C   0  0  0  0  0
    0.8688    0.4555   -0.6666 C   0  0  0  0  0
   -0.0895    2.4178   -1.6089 C   0  0  0  0  0
    1.8274    0.4769   -1.6735 C   0  0  0  0  0
   -0.1114    1.4408   -0.6264 C   0  0  0  0  0
   -3.3279   -3.1258   -0.6995 C   0  0  0  0  0
   -2.9838   -0.3840   -0.3166 C   0  0  0  0  0
    1.7625    1.4969   -2.6090 C   0  0  0  0  0
    2.8648   -0.5681   -1.7137 C   0  0  0  0  0
    1.7942    1.7133   -5.8623 C   0  0  0  0  0
    3.7753    3.7123   -3.7163 C   0  0  0  0  0
   -3.2314   -4.9750   -2.1918 C   0  0  0  0  0
    2.4966    0.8333   -4.8852 C   0  0  0  0  0
    3.9691    2.2577   -3.4529 C   0  0  0  0  0
    0.8255    2.4714   -2.6026 N   0  0  0  0  0
   -1.1165    1.4456    0.4021 N   0  0  0  0  0
    2.7364    1.5251   -3.6385 N   0  0  0  0  0
    2.6324   -1.6451   -2.3796 O   0  0  0  0  0
    3.9683   -0.3691   -1.0816 O   0  0  0  0  0
   -3.5958    1.7303    1.0551 O   0  0  0  0  0
   -2.9523    2.0085   -1.3549 O   0  0  0  0  0
   -3.4956   -4.4634   -0.8863 O   0  0  0  0  0
   -2.7676    1.3317   -0.0770 S   0  0  0  0  0
  1  9  1  0  0  0
  2  4  1  0  0  0
  3 10  1  0  0  0
  5  8  1  0  0  0
  6 18  1  0  0  0
  7 11  1  0  0  0
  7 12  1  0  0  0
  8 19  1  0  0  0
  9 25  1  0  0  0
 11 20  1  0  0  0
 12 21  1  0  0  0
 13 16  1  0  0  0
 14 17  1  0  0  0
 15 25  1  0  0  0
 16 20  1  0  0  0
 17 20  1  0  0  0
 26 10  1  0  0  0
 26 19  1  0  0  0
  1  3  2  0  0  0
  2  9  2  0  0  0
  4 10  2  0  0  0
  5  7  2  0  0  0
  6  8  2  0  0  0
 11 18  2  0  0  0
 12 22  2  0  0  0
 26 23  2  0  0  0
 26 24  2  0  0  0
M  CHG  1  21  -1
M  END
> <rmsd>
0.51314199

$$$$
ZINC35397632


 26 27  0  0  0  0  0  0  0  0999 V2000
   -2.4310   -2.2480   -1.7986 C   0  0  0  0  0
   -3.2694   -2.5860    0.4420 C   0  0  0  0  0
   -2.3873   -0.8720   -1.5747 C   0  0  0  0  0
   -3.2258   -1.2098    0.6658 C   0  0  0  0  0
    1.0040    0.7939   -0.3282 C   0  0  0  0  0
   -0.0197    2.6931   -1.3291 C   0  0  0  0  0
    2.0447    0.9107   -1.2428 C   0  0  0  0  0
   -0.0517    1.6981   -0.3653 C   0  0  0  0  0
   -2.8721   -3.1051   -0.7902 C   0  0  0  0  0
   -2.7847   -0.3528   -0.3425 C   0  0  0  0  0
    1.9828    1.9409   -2.1674 C   0  0  0  0  0
    3.1619   -0.0484   -1.2014 C   0  0  0  0  0
    2.2901    2.2240   -5.4011 C   0  0  0  0  0
    3.9031    4.3294   -3.0577 C   0  0  0  0  0
   -2.4935   -4.9108   -2.2908 C   0  0  0  0  0
    2.9698    1.3827   -4.3751 C   0  0  0  0  0
    4.1883    2.8897   -2.7963 C   0  0  0  0  0
    0.9739    2.8384   -2.2342 N   0  0  0  0  0
   -1.1425    1.6033    0.5671 N   0  0  0  0  0
    3.0400    2.0663   -3.1031 N   0  0  0  0  0
    3.0774   -1.1268   -1.8993 O   0  0  0  0  0
    4.1844    0.2242   -0.4685 O   0  0  0  0  0
   -3.6853    1.6789    0.9942 O   0  0  0  0  0
   -2.8517    2.0549   -1.3431 O   0  0  0  0  0
   -2.9145   -4.4477   -1.0085 O   0  0  0  0  0
   -2.7292    1.3694   -0.0624 S   0  0  0  0  0
  1  9  1  0  0  0
  2  4  1  0  0  0
  3 10  1  0  0  0
  5  8  1  0  0  0
  6 18  1  0  0  0
  7 11  1  0  0  0
  7 12  1  0  0  0
  8 19  1  0  0  0
  9 25  1  0  0  0
 11 20  1  0  0  0
 12 21  1  0  0  0
 13 16  1  0  0  0
 14 17  1  0  0  0
 15 25  1  0  0  0
 16 20  1  0  0  0
 17 20  1  0  0  0
 26 10  1  0  0  0
 26 19  1  0  0  0
  1  3  2  0  0  0
  2  9  2  0  0  0
  4 10  2  0  0  0
  5  7  2  0  0  0
  6  8  2  0  0  0
 11 18  2  0  0  0
 12 22  2  0  0  0
 26 23  2  0  0  0
 26 24  2  0  0  0
M  CHG  1  21  -1
M  END
> <rmsd>
0.695296764

$$$$
ZINC21595896


 23 24  0  0  0  0  0  0  0  0999 V2000
    1.0385    0.0876    0.1969 C   0  0  0  0  0
    0.2392    1.4166   -1.6556 C   0  0  0  0  0
    2.1235   -0.3324   -0.5726 C   0  0  0  0  0
    1.3242    0.9967   -2.4250 C   0  0  0  0  0
   -3.2903   -0.7360    1.2893 C   0  0  0  0  0
   -3.7733    0.1343   -0.9121 C   0  0  0  0  0
   -2.9139   -1.9548    0.7249 C   0  0  0  0  0
   -3.3969   -1.0844   -1.4765 C   0  0  0  0  0
    0.0964    0.9621   -0.3447 C   0  0  0  0  0
    2.2664    0.1221   -1.8835 C   0  0  0  0  0
   -3.7200    0.3086    0.4708 C   0  0  0  0  0
   -2.9673   -2.1290   -0.6580 C   0  0  0  0  0
   -2.0318    2.2476    0.0601 C   0  0  0  0  0
   -3.6975    3.8638    1.0917 C   0  0  0  0  0
   -2.4357    2.2442    2.5583 C   0  0  0  0  0
   -3.0581    2.4788    1.1834 C   0  0  0  0  0
   -1.0052    1.3880    0.4361 N   0  0  0  0  0
    3.3709   -0.3052   -2.6667 N   0  0  0  0  0
    4.2073   -1.0920   -2.1605 O   0  0  0  0  0
   -2.1637    2.7948   -1.0329 O   0  0  0  0  0
    3.4806    0.1152   -3.8439 O   0  0  0  0  0
   -4.0885    1.5039    1.0243 O   0  0  0  0  0
   -2.4575   -3.7804   -1.4227 Br  0  0  0  0  0
  1  9  1  0  0  0
  2  4  1  0  0  0
  3 10  1  0  0  0
  5 11  1  0  0  0
  6  8  1  0  0  0
  7 12  1  0  0  0
  9 17  1  0  0  0
 10 18  1  0  0  0
 11 22  1  0  0  0
 12 23  1  0  0  0
 13 17  1  0  0  0
 14 16  1  0  0  0
 15 16  1  0  0  0
 16 13  1  0  0  0
 16 22  1  0  0  0
 18 19  1  0  0  0
  1  3  2  0  0  0
  2  9  2  0  0  0
  4 10  2  0  0  0
  5  7  2  0  0  0
  6 11  2  0  0  0
  8 12  2  0  0  0
 13 20  2  0  0  0
 18 21  2  0  0  0
M  CHG  2  18   1  19  -1
M  END
> <rmsd>
0.598293662

$$$$
ZINC15732041


 25 27  0  0  0  0  0  0  0  0999 V2000
    1.6591    2.5857   -1.4536 C   0  0  0  0  0
    0.5168    2.6294   -0.6545 C   0  0  0  0  0
    2.2855    1.3657   -1.7088 C   0  0  0  0  0
   -3.5863   -2.5232    0.5883 C   0  0  0  0  0
   -3.4643   -1.1458    0.7583 C   0  0  0  0  0
   -2.3988   -1.0268   -1.3823 C   0  0  0  0  0
    0.6274    0.2333   -0.3653 C   0  0  0  0  0
   -2.4974   -2.4277   -1.5759 C   0  0  0  0  0
    0.0009    1.4532   -0.1102 C   0  0  0  0  0
    1.7697    0.1895   -1.1645 C   0  0  0  0  0
   -3.1226   -3.1883   -0.5745 C   0  0  0  0  0
   -2.8720   -0.3919   -0.2358 C   0  0  0  0  0
   -1.6674   -4.0474   -3.3988 C   0  0  0  0  0
   -1.9968   -5.3447   -2.7250 C   0  0  0  0  0
   -3.4272   -5.3991   -2.2522 C   0  0  0  0  0
   -1.9184   -2.8463   -2.7993 N   0  0  0  0  0
   -1.1767    1.4987    0.7141 N   0  0  0  0  0
    2.4072   -1.0520   -1.4254 N   0  0  0  0  0
    3.4331   -1.0689   -2.1478 O   0  0  0  0  0
   -1.1117   -4.0781   -4.5050 O   0  0  0  0  0
    1.9277   -2.0987   -0.9262 O   0  0  0  0  0
   -3.7351    1.7831    0.8827 O   0  0  0  0  0
   -2.6585    1.9427   -1.3790 O   0  0  0  0  0
   -3.4664   -4.9382   -0.5151 S   0  0  0  0  0
   -2.7106    1.3356   -0.0542 S   0  0  0  0  0
  1  2  1  0  0  0
  3 10  1  0  0  0
  4 11  1  0  0  0
  5 12  1  0  0  0
  6  8  1  0  0  0
  7  9  1  0  0  0
  8 16  1  0  0  0
  9 17  1  0  0  0
 10 18  1  0  0  0
 11 24  1  0  0  0
 13 16  1  0  0  0
 14 13  1  0  0  0
 14 15  1  0  0  0
 15 24  1  0  0  0
 18 19  1  0  0  0
 25 12  1  0  0  0
 25 17  1  0  0  0
  1  3  2  0  0  0
  2  9  2  0  0  0
  4  5  2  0  0  0
  6 12  2  0  0  0
  7 10  2  0  0  0
  8 11  2  0  0  0
 13 20  2  0  0  0
 18 21  2  0  0  0
 25 22  2  0  0  0
 25 23  2  0  0  0
M  CHG  2  18   1  19  -1
M  END
> <rmsd>
0.567874193

$$$$
ZINC33253350


 26 27  0  0  0  0  0  0  0  0999 V2000
   -0.1070    2.5016   -1.5738 C   0  0  0  0  0
    0.8687    2.5248   -2.5703 C   0  0  0  0  0
   -3.5401   -2.5660    0.5388 C   0  0  0  0  0
   -2.9055   -2.3069   -1.7779 C   0  0  0  0  0
   -3.3764   -1.1950    0.7370 C   0  0  0  0  0
   -2.7418   -0.9360   -1.5798 C   0  0  0  0  0
    0.8578    0.4766   -0.6763 C   0  0  0  0  0
    1.8335    0.4997   -1.6728 C   0  0  0  0  0
   -0.1124    1.4775   -0.6266 C   0  0  0  0  0
    1.8389    1.5238   -2.6199 C   0  0  0  0  0
   -3.3046   -3.1220   -0.7186 C   0  0  0  0  0
   -2.9773   -0.3800   -0.3223 C   0  0  0  0  0
    2.8484   -0.5702   -1.7024 C   0  0  0  0  0
    0.8595    1.9625   -8.1984 C   0  0  0  0  0
    4.0708    2.2819   -3.3974 C   0  0  0  0  0
    1.6452    1.0833   -7.2382 C   0  0  0  0  0
    1.8815    1.7887   -5.9007 C   0  0  0  0  0
    2.6158    0.9079   -4.8953 C   0  0  0  0  0
   -1.1117    1.4538    0.3927 N   0  0  0  0  0
    2.8127    1.5644   -3.6326 N   0  0  0  0  0
    2.6040   -1.6333   -2.3843 O   0  0  0  0  0
    3.9413   -0.4017   -1.0452 O   0  0  0  0  0
   -3.5975    1.7228    1.0632 O   0  0  0  0  0
   -2.9652    2.0183   -1.3477 O   0  0  0  0  0
   -3.4605   -4.4387   -0.9086 F   0  0  0  0  0
   -2.7682    1.3594   -0.0707 S   0  0  0  0  0
  1  9  1  0  0  0
  2 10  1  0  0  0
  3 11  1  0  0  0
  4  6  1  0  0  0
  5 12  1  0  0  0
  7  8  1  0  0  0
  8 13  1  0  0  0
  9 19  1  0  0  0
 10 20  1  0  0  0
 11 25  1  0  0  0
 13 21  1  0  0  0
 14 16  1  0  0  0
 15 20  1  0  0  0
 16 17  1  0  0  0
 17 18  1  0  0  0
 18 20  1  0  0  0
 26 12  1  0  0  0
 26 19  1  0  0  0
  1  2  2  0  0  0
  3  5  2  0  0  0
  4 11  2  0  0  0
  6 12  2  0  0  0
  7  9  2  0  0  0
  8 10  2  0  0  0
 13 22  2  0  0  0
 26 23  2  0  0  0
 26 24  2  0  0  0
M  CHG  1  21  -1
M  END
> <rmsd>
0.526501834

$$$$
ZINC33253350


 26 27  0  0  0  0  0  0  0  0999 V2000
   -0.0379    2.7668   -1.2897 C   0  0  0  0  0
    1.0214    2.8835   -2.1896 C   0  0  0  0  0
   -3.2450   -2.5883    0.4329 C   0  0  0  0  0
   -2.4198   -2.2383   -1.8107 C   0  0  0  0  0
   -3.2084   -1.2128    0.6611 C   0  0  0  0  0
   -2.3833   -0.8627   -1.5826 C   0  0  0  0  0
    0.9949    0.8057   -0.3282 C   0  0  0  0  0
    2.0542    0.9223   -1.2281 C   0  0  0  0  0
   -0.0512    1.7279   -0.3589 C   0  0  0  0  0
    2.0675    1.9612   -2.1588 C   0  0  0  0  0
   -2.8507   -3.1011   -0.8029 C   0  0  0  0  0
   -2.7776   -0.3499   -0.3467 C   0  0  0  0  0
    3.1482   -0.0655   -1.1740 C   0  0  0  0  0
    1.5799    2.4267   -7.7995 C   0  0  0  0  0
    4.2957    2.9031   -2.7140 C   0  0  0  0  0
    2.3394    1.5929   -6.7795 C   0  0  0  0  0
    2.3941    2.2895   -5.4179 C   0  0  0  0  0
    3.0985    1.4493   -4.3577 C   0  0  0  0  0
   -1.1360    1.6085    0.5615 N   0  0  0  0  0
    3.1251    2.0954   -3.0748 N   0  0  0  0  0
    3.0523   -1.1314   -1.8878 O   0  0  0  0  0
    4.1586    0.1743   -0.4148 O   0  0  0  0  0
   -3.6868    1.6728    0.9979 O   0  0  0  0  0
   -2.8581    2.0608   -1.3393 O   0  0  0  0  0
   -2.8846   -4.4222   -1.0216 F   0  0  0  0  0
   -2.7297    1.3955   -0.0570 S   0  0  0  0  0
  1  9  1  0  0  0
  2 10  1  0  0  0
  3 11  1  0  0  0
  4  6  1  0  0  0
  5 12  1  0  0  0
  7  8  1  0  0  0
  8 13  1  0  0  0
  9 19  1  0  0  0
 10 20  1  0  0  0
 11 25  1  0  0  0
 13 21  1  0  0  0
 14 16  1  0  0  0
 15 20  1  0  0  0
 16 17  1  0  0  0
 17 18  1  0  0  0
 18 20  1  0  0  0
 26 12  1  0  0  0
 26 19  1  0  0  0
  1  2  2  0  0  0
  3  5  2  0  0  0
  4 11  2  0  0  0
  6 12  2  0  0  0
  7  9  2  0  0  0
  8 10  2  0  0  0
 13 22  2  0  0  0
 26 23  2  0  0  0
 26 24  2  0  0  0
M  CHG  1  21  -1
M  END
> <rmsd>
0.707570314

$$$$
ZINC13552105


 26 28  0  0  0  0  0  0  0  0999 V2000
   -2.9713   -2.5707   -0.9614 C   0  0  0  0  0
   -2.3484   -1.2999   -0.9588 C   0  0  0  0  0
   -4.1012   -2.4440   -0.1874 C   0  0  0  0  0
   -3.1423   -0.4870   -0.1835 C   0  0  0  0  0
    3.2806    0.4453   -0.1047 C   0  0  0  0  0
    3.8237   -0.0260    1.0430 C   0  0  0  0  0
    1.2694    1.7454   -0.9448 C   0  0  0  0  0
   -3.0160    0.9466    0.1936 C   0  0  0  0  0
    3.8285   -0.0140   -1.4509 C   0  0  0  0  0
   -1.8381    1.7329   -0.3188 C   0  0  0  0  0
    3.2295    0.2400    2.4243 C   0  0  0  0  0
    0.4912    2.3484    0.2595 C   0  0  0  0  0
    1.7340    1.9677    1.0932 C   0  0  0  0  0
   -4.6028    3.4030    2.0320 C   0  0  0  0  0
    5.0621   -0.8859    1.1079 C   0  0  0  0  0
   -3.9002    1.5147    0.9570 N   0  0  0  0  0
    2.2047    1.2738   -0.0920 N   0  0  0  0  0
   -0.7736    1.6690    0.5366 N   0  0  0  0  0
    3.2744   -1.0419   -1.9205 O   0  0  0  0  0
    1.0976    1.6452   -2.1370 O   0  0  0  0  0
    4.7602    0.6975   -1.9092 O   0  0  0  0  0
   -1.9519    2.3106   -1.3878 O   0  0  0  0  0
   -4.2128   -1.1767    0.2904 O   0  0  0  0  0
    6.0479   -0.2305    1.8779 O   0  0  0  0  0
   -3.5927    2.8614    1.1950 O   0  0  0  0  0
    1.4786    0.7549    2.4085 S   0  0  0  0  0
  1  2  1  0  0  0
  3 23  1  0  0  0
  4  8  1  0  0  0
  4 23  1  0  0  0
  5  9  1  0  0  0
  5 17  1  0  0  0
  7 17  1  0  0  0
  8 10  1  0  0  0
  9 19  1  0  0  0
 10 18  1  0  0  0
 11  6  1  0  0  0
 11 26  1  0  0  0
 12  7  1  0  0  0
 12 13  1  0  0  0
 12 18  1  0  0  0
 13 17  1  0  0  0
 13 26  1  0  0  0
 14 25  1  0  0  0
 15  6  1  0  0  0
 15 24  1  0  0  0
 16 25  1  0  0  0
  1  3  2  0  0  0
  2  4  2  0  0  0
  5  6  2  0  0  0
  7 20  2  0  0  0
  8 16  2  0  0  0
  9 21  2  0  0  0
 10 22  2  0  0  0
M  CHG  1  19  -1
M  END
> <rmsd>
0.324359

$$$$
ZINC13552105


 26 28  0  0  0  0  0  0  0  0999 V2000
   -3.4181   -2.6080   -0.7923 C   0  0  0  0  0
   -2.6839   -1.4002   -0.8644 C   0  0  0  0  0
   -4.5013   -2.3491    0.0148 C   0  0  0  0  0
   -3.3710   -0.4891   -0.0965 C   0  0  0  0  0
    3.1080   -0.1451   -0.2810 C   0  0  0  0  0
    3.6504   -0.6196    0.8656 C   0  0  0  0  0
    1.1908    1.3001   -1.1038 C   0  0  0  0  0
   -3.1019    0.9403    0.2159 C   0  0  0  0  0
    3.5600   -0.7037   -1.6252 C   0  0  0  0  0
   -1.8787    1.5956   -0.3696 C   0  0  0  0  0
    3.1362   -0.2478    2.2546 C   0  0  0  0  0
    0.5170    2.0175    0.1007 C   0  0  0  0  0
    1.7517    1.5570    0.9056 C   0  0  0  0  0
   -4.3895    3.6001    2.0046 C   0  0  0  0  0
    4.8080   -1.5859    0.9230 C   0  0  0  0  0
   -3.9014    1.6157    0.9854 N   0  0  0  0  0
    2.1122    0.7782   -0.2653 N   0  0  0  0  0
   -0.7921    1.4676    0.4499 N   0  0  0  0  0
    2.8981   -1.6940   -2.0320 O   0  0  0  0  0
    0.9648    1.1705   -2.2841 O   0  0  0  0  0
    4.5335   -0.0985   -2.1451 O   0  0  0  0  0
   -1.9813    2.1399   -1.4572 O   0  0  0  0  0
   -4.4801   -1.0595    0.4429 O   0  0  0  0  0
    5.8777   -0.9943    1.6301 O   0  0  0  0  0
   -3.4652    2.9368    1.1562 O   0  0  0  0  0
    1.4393    0.4240    2.2785 S   0  0  0  0  0
  1  2  1  0  0  0
  3 23  1  0  0  0
  4  8  1  0  0  0
  4 23  1  0  0  0
  5  9  1  0  0  0
  5 17  1  0  0  0
  7 17  1  0  0  0
  8 10  1  0  0  0
  9 19  1  0  0  0
 10 18  1  0  0  0
 11  6  1  0  0  0
 11 26  1  0  0  0
 12  7  1  0  0  0
 12 13  1  0  0  0
 12 18  1  0  0  0
 13 17  1  0  0  0
 13 26  1  0  0  0
 14 25  1  0  0  0
 15  6  1  0  0  0
 15 24  1  0  0  0
 16 25  1  0  0  0
  1  3  2  0  0  0
  2  4  2  0  0  0
  5  6  2  0  0  0
  7 20  2  0  0  0
  8 16  2  0  0  0
  9 21  2  0  0  0
 10 22  2  0  0  0
M  CHG  1  19  -1
M  END
> <rmsd>
0.0311302822

$$$$
ZINC13552105


 26 28  0  0  0  0  0  0  0  0999 V2000
   -4.1662   -2.5796   -0.1967 C   0  0  0  0  0
   -4.4280   -1.3171    0.3871 C   0  0  0  0  0
   -3.0097   -2.4307   -0.9261 C   0  0  0  0  0
   -3.4126   -0.4868   -0.0270 C   0  0  0  0  0
    3.0650   -0.1678   -0.2878 C   0  0  0  0  0
    3.6182   -0.6185    0.8632 C   0  0  0  0  0
    1.1435    1.2649   -1.1222 C   0  0  0  0  0
   -3.1359    0.9483    0.2507 C   0  0  0  0  0
    3.5010   -0.7576   -1.6240 C   0  0  0  0  0
   -1.9171    1.5865   -0.3623 C   0  0  0  0  0
    3.1200   -0.2142    2.2490 C   0  0  0  0  0
    0.4847    2.0110    0.0731 C   0  0  0  0  0
    1.7266    1.5646    0.8749 C   0  0  0  0  0
   -4.3964    3.6513    1.9933 C   0  0  0  0  0
    4.7735   -1.5870    0.9298 C   0  0  0  0  0
   -3.9252    1.6432    1.0133 N   0  0  0  0  0
    2.0722    0.7587   -0.2821 N   0  0  0  0  0
   -0.8222    1.4732    0.4483 N   0  0  0  0  0
    2.8318   -1.7546   -2.0016 O   0  0  0  0  0
    0.9046    1.1098   -2.2969 O   0  0  0  0  0
    4.4707   -0.1672   -2.1675 O   0  0  0  0  0
   -2.0297    2.1068   -1.4605 O   0  0  0  0  0
   -2.5439   -1.1580   -0.8278 O   0  0  0  0  0
    5.8525   -0.9832    1.6122 O   0  0  0  0  0
   -3.4832    2.9664    1.1500 O   0  0  0  0  0
    1.4255    0.4633    2.2759 S   0  0  0  0  0
  1  2  1  0  0  0
  3 23  1  0  0  0
  4  8  1  0  0  0
  4 23  1  0  0  0
  5  9  1  0  0  0
  5 17  1  0  0  0
  7 17  1  0  0  0
  8 10  1  0  0  0
  9 19  1  0  0  0
 10 18  1  0  0  0
 11  6  1  0  0  0
 11 26  1  0  0  0
 12  7  1  0  0  0
 12 13  1  0  0  0
 12 18  1  0  0  0
 13 17  1  0  0  0
 13 26  1  0  0  0
 14 25  1  0  0  0
 15  6  1  0  0  0
 15 24  1  0  0  0
 16 25  1  0  0  0
  1  3  2  0  0  0
  2  4  2  0  0  0
  5  6  2  0  0  0
  7 20  2  0  0  0
  8 16  2  0  0  0
  9 21  2  0  0  0
 10 22  2  0  0  0
M  CHG  1  19  -1
M  END
> <rmsd>
0.141639456

$$$$
ZINC13552105


 26 28  0  0  0  0  0  0  0  0999 V2000
   -3.7370   -2.6355   -0.3977 C   0  0  0  0  0
   -4.1329   -1.4281    0.2259 C   0  0  0  0  0
   -2.5759   -2.3512   -1.0780 C   0  0  0  0  0
   -3.1852   -0.4922   -0.1177 C   0  0  0  0  0
    3.2405    0.4238   -0.1295 C   0  0  0  0  0
    3.7949   -0.0238    1.0222 C   0  0  0  0  0
    1.2234    1.7108   -0.9758 C   0  0  0  0  0
   -3.0512    0.9489    0.2266 C   0  0  0  0  0
    3.7723   -0.0662   -1.4713 C   0  0  0  0  0
   -1.8770    1.7206   -0.3157 C   0  0  0  0  0
    3.2166    0.2738    2.4038 C   0  0  0  0  0
    0.4600    2.3421    0.2234 C   0  0  0  0  0
    1.7109    1.9762    1.0516 C   0  0  0  0  0
   -4.6115    3.4492    2.0281 C   0  0  0  0  0
    5.0318   -0.8855    1.0922 C   0  0  0  0  0
   -3.9255    1.5360    0.9870 N   0  0  0  0  0
    2.1669    1.2554   -0.1232 N   0  0  0  0  0
   -0.8034    1.6724    0.5291 N   0  0  0  0  0
    3.2105   -1.1027   -1.9123 O   0  0  0  0  0
    1.0383    1.5851   -2.1636 O   0  0  0  0  0
    4.7007    0.6324   -1.9552 O   0  0  0  0  0
   -2.0011    2.2752   -1.3958 O   0  0  0  0  0
   -2.2327   -1.0469   -0.9124 O   0  0  0  0  0
    6.0276   -0.2162    1.8369 O   0  0  0  0  0
   -3.6120    2.8867    1.1921 O   0  0  0  0  0
    1.4670    0.7931    2.3959 S   0  0  0  0  0
  1  2  1  0  0  0
  3 23  1  0  0  0
  4  8  1  0  0  0
  4 23  1  0  0  0
  5  9  1  0  0  0
  5 17  1  0  0  0
  7 17  1  0  0  0
  8 10  1  0  0  0
  9 19  1  0  0  0
 10 18  1  0  0  0
 11  6  1  0  0  0
 11 26  1  0  0  0
 12  7  1  0  0  0
 12 13  1  0  0  0
 12 18  1  0  0  0
 13 17  1  0  0  0
 13 26  1  0  0  0
 14 25  1  0  0  0
 15  6  1  0  0  0
 15 24  1  0  0  0
 16 25  1  0  0  0
  1  3  2  0  0  0
  2  4  2  0  0  0
  5  6  2  0  0  0
  7 20  2  0  0  0
  8 16  2  0  0  0
  9 21  2  0  0  0
 10 22  2  0  0  0
M  CHG  1  19  -1
M  END
> <rmsd>
0.439607561

$$$$
ZINC35397680


 26 28  0  0  0  0  0  0  0  0999 V2000
   -3.5700   -2.5599    0.5584 C   0  0  0  0  0
   -2.9151   -2.3220   -1.7551 C   0  0  0  0  0
   -3.3977   -1.1889    0.7482 C   0  0  0  0  0
   -2.7430   -0.9509   -1.5652 C   0  0  0  0  0
    0.8680    0.4565   -0.6598 C   0  0  0  0  0
   -0.0602    2.4521   -1.5612 C   0  0  0  0  0
    1.8377    0.4939   -1.6557 C   0  0  0  0  0
   -0.1026    1.4506   -0.6047 C   0  0  0  0  0
   -3.3286   -3.1266   -0.6933 C   0  0  0  0  0
   -2.9842   -0.3844   -0.3136 C   0  0  0  0  0
    1.7930    1.5381   -2.5653 C   0  0  0  0  0
    2.8648   -0.5604   -1.7119 C   0  0  0  0  0
    4.0127    2.3089   -3.2963 C   0  0  0  0  0
    2.3627    1.5414   -4.9799 C   0  0  0  0  0
    5.1054    1.8318   -4.2462 C   0  0  0  0  0
    3.5435    1.1057   -5.8403 C   0  0  0  0  0
    0.8659    2.5218   -2.5436 N   0  0  0  0  0
    2.7653    1.5822   -3.5698 N   0  0  0  0  0
   -1.1095    1.4394    0.4037 N   0  0  0  0  0
    2.6288   -1.6176   -2.4077 O   0  0  0  0  0
    3.9634   -0.3891   -1.0632 O   0  0  0  0  0
   -3.6010    1.7329    1.0512 O   0  0  0  0  0
   -2.9446    2.0062   -1.3559 O   0  0  0  0  0
    4.6727    1.9453   -5.6017 O   0  0  0  0  0
   -3.4927   -4.4435   -0.8753 F   0  0  0  0  0
   -2.7643    1.3552   -0.0725 S   0  0  0  0  0
  1  3  1  0  0  0
  2  9  1  0  0  0
  4 10  1  0  0  0
  5  8  1  0  0  0
  6 17  1  0  0  0
  7 11  1  0  0  0
  7 12  1  0  0  0
  8 19  1  0  0  0
  9 25  1  0  0  0
 11 18  1  0  0  0
 12 20  1  0  0  0
 13 15  1  0  0  0
 13 18  1  0  0  0
 14 16  1  0  0  0
 14 18  1  0  0  0
 15 24  1  0  0  0
 16 24  1  0  0  0
 26 10  1  0  0  0
 26 19  1  0  0  0
  1  9  2  0  0  0
  2  4  2  0  0  0
  3 10  2  0  0  0
  5  7  2  0  0  0
  6  8  2  0  0  0
 11 17  2  0  0  0
 12 21  2  0  0  0
 26 22  2  0  0  0
 26 23  2  0  0  0
M  CHG  1  20  -1
M  END
> <rmsd>
0.510655344

$$$$
ZINC35397680


 26 28  0  0  0  0  0  0  0  0999 V2000
   -3.2790   -2.5844    0.4521 C   0  0  0  0  0
   -2.4319   -2.2555   -1.7866 C   0  0  0  0  0
   -3.2326   -1.2078    0.6720 C   0  0  0  0  0
   -2.3856   -0.8788   -1.5666 C   0  0  0  0  0
    1.0044    0.7847   -0.3097 C   0  0  0  0  0
    0.0115    2.7191   -1.2732 C   0  0  0  0  0
    2.0568    0.9141   -1.2092 C   0  0  0  0  0
   -0.0417    1.7003   -0.3358 C   0  0  0  0  0
   -2.8786   -3.1083   -0.7772 C   0  0  0  0  0
   -2.7859   -0.3550   -0.3374 C   0  0  0  0  0
    2.0159    1.9681   -2.1077 C   0  0  0  0  0
    3.1638   -0.0572   -1.1796 C   0  0  0  0  0
    4.2271    2.9196   -2.6178 C   0  0  0  0  0
    2.8061    2.0584   -4.4577 C   0  0  0  0  0
    5.4374    2.5449   -3.4655 C   0  0  0  0  0
    4.0923    1.7300   -5.2075 C   0  0  0  0  0
    1.0168    2.8772   -2.1631 N   0  0  0  0  0
    3.0711    2.1046   -3.0155 N   0  0  0  0  0
   -1.1341    1.5939    0.5731 N   0  0  0  0  0
    3.0768   -1.1166   -1.9058 O   0  0  0  0  0
    4.1804    0.1861   -0.4284 O   0  0  0  0  0
   -3.6904    1.6839    0.9857 O   0  0  0  0  0
   -2.8359    2.0499   -1.3456 O   0  0  0  0  0
    5.1255    2.6493   -4.8545 O   0  0  0  0  0
   -2.9218   -4.4304   -0.9880 F   0  0  0  0  0
   -2.7258    1.3917   -0.0580 S   0  0  0  0  0
  1  3  1  0  0  0
  2  9  1  0  0  0
  4 10  1  0  0  0
  5  8  1  0  0  0
  6 17  1  0  0  0
  7 11  1  0  0  0
  7 12  1  0  0  0
  8 19  1  0  0  0
  9 25  1  0  0  0
 11 18  1  0  0  0
 12 20  1  0  0  0
 13 15  1  0  0  0
 13 18  1  0  0  0
 14 16  1  0  0  0
 14 18  1  0  0  0
 15 24  1  0  0  0
 16 24  1  0  0  0
 26 10  1  0  0  0
 26 19  1  0  0  0
  1  9  2  0  0  0
  2  4  2  0  0  0
  3 10  2  0  0  0
  5  7  2  0  0  0
  6  8  2  0  0  0
 11 17  2  0  0  0
 12 21  2  0  0  0
 26 22  2  0  0  0
 26 23  2  0  0  0
M  CHG  1  20  -1
M  END
> <rmsd>
0.689827383

$$$$
ZINC64683482


 28 30  0  0  0  0  0  0  0  0999 V2000
   -7.9943    4.0855   -0.7664 C   0  0  0  0  0
   -7.1633    5.1936   -0.9312 C   0  0  0  0  0
   -7.4703    2.8862   -0.2838 C   0  0  0  0  0
   -5.8082    5.1023   -0.6136 C   0  0  0  0  0
   -6.1151    2.7950    0.0337 C   0  0  0  0  0
   -5.2840    3.9031   -0.1311 C   0  0  0  0  0
   -3.3123   -2.2790    0.7875 C   0  0  0  0  0
   -4.5487   -2.1722    0.0265 C   0  0  0  0  0
   -2.1081   -2.1406    0.2074 C   0  0  0  0  0
   -4.5841   -1.9312   -1.2956 C   0  0  0  0  0
   -2.0522   -1.8816   -1.1981 C   0  0  0  0  0
   -1.0741   -1.6909   -2.0953 C   0  0  0  0  0
   -3.2957   -1.7710   -1.9842 C   0  0  0  0  0
   -3.2242    2.7015    0.6799 C   0  0  0  0  0
    2.4918   -0.2856   -1.3778 C   0  0  0  0  0
   -0.4255    1.4879   -0.5448 C   0  0  0  0  0
   -1.6360   -1.4535   -3.4742 C   0  0  0  0  0
    0.3963   -1.6914   -1.8746 C   0  0  0  0  0
   -1.7594    3.0327    0.8906 C   0  0  0  0  0
    0.9665   -0.2941   -1.5892 C   0  0  0  0  0
   -3.0852   -1.5387   -3.2216 N   0  0  0  0  0
   -3.9091    3.8109    0.1911 N   0  0  0  0  0
   -0.9539    1.8501    0.6913 N   0  0  0  0  0
    0.3072    0.3092   -0.4512 N   0  0  0  0  0
    3.1506   -1.1692   -1.9925 O   0  0  0  0  0
   -3.6832    1.5882    0.9148 O   0  0  0  0  0
    2.9046    0.6192   -0.5948 O   0  0  0  0  0
   -0.5848    2.1264   -1.5843 O   0  0  0  0  0
  1  2  1  0  0  0
  3  5  1  0  0  0
  4  6  1  0  0  0
  6 22  1  0  0  0
  7  8  1  0  0  0
  9 11  1  0  0  0
 10 13  1  0  0  0
 11 13  1  0  0  0
 14 22  1  0  0  0
 15 25  1  0  0  0
 16 23  1  0  0  0
 16 24  1  0  0  0
 17 12  1  0  0  0
 17 21  1  0  0  0
 18 12  1  0  0  0
 18 20  1  0  0  0
 19 14  1  0  0  0
 19 23  1  0  0  0
 20 15  1  0  0  0
 20 24  1  0  0  0
  1  3  2  0  0  0
  2  4  2  0  0  0
  5  6  2  0  0  0
  7  9  2  0  0  0
  8 10  2  0  0  0
 11 12  2  0  0  0
 13 21  2  0  0  0
 14 26  2  0  0  0
 15 27  2  0  0  0
 16 28  2  0  0  0
M  CHG  2  21   1  25  -1
M  END
> <rmsd>
0.561459064

$$$$
ZINC16264885


 25 27  0  0  0  0  0  0  0  0999 V2000
    0.7365    2.4258   -2.7464 C   0  0  0  0  0
   -0.1484    2.5028   -1.6710 C   0  0  0  0  0
    1.5153    1.2829   -2.9283 C   0  0  0  0  0
    0.5243    0.2942   -0.9592 C   0  0  0  0  0
   -0.2545    1.4371   -0.7774 C   0  0  0  0  0
    1.4093    0.2171   -2.0347 C   0  0  0  0  0
   -2.9370   -2.9897   -2.9718 C   0  0  0  0  0
   -3.1556   -4.2994   -2.8101 C   0  0  0  0  0
   -3.0532   -0.3496   -0.3481 C   0  0  0  0  0
   -3.3672   -1.1902    0.6633 C   0  0  0  0  0
   -2.8682   -0.8823   -1.7349 C   0  0  0  0  0
   -3.3693   -3.0039   -0.6974 C   0  0  0  0  0
    0.4060   -0.8472    0.0036 C   0  0  0  0  0
   -3.5837   -0.7724    2.0977 C   0  0  0  0  0
   -3.5321   -2.5558    0.4997 N   0  0  0  0  0
   -3.0498   -2.2515   -1.8139 N   0  0  0  0  0
   -1.1756    1.5386    0.3266 N   0  0  0  0  0
    2.2147   -0.9370   -2.2414 N   0  0  0  0  0
    3.3487   -0.9871   -1.7095 O   0  0  0  0  0
   -2.5851   -0.1423   -2.6725 O   0  0  0  0  0
    1.7662   -1.8696   -2.9488 O   0  0  0  0  0
   -3.1527    2.0609   -1.2828 O   0  0  0  0  0
   -3.5996    1.6707    1.1527 O   0  0  0  0  0
   -3.5245   -4.6932   -1.1554 S   0  0  0  0  0
   -2.8568    1.3374   -0.0548 S   0  0  0  0  0
  1  2  1  0  0  0
  3  6  1  0  0  0
  4  5  1  0  0  0
  5 17  1  0  0  0
  6 18  1  0  0  0
  7 16  1  0  0  0
  8 24  1  0  0  0
  9 11  1  0  0  0
 10 15  1  0  0  0
 11 16  1  0  0  0
 12 16  1  0  0  0
 12 24  1  0  0  0
 13  4  1  0  0  0
 14 10  1  0  0  0
 18 19  1  0  0  0
 25  9  1  0  0  0
 25 17  1  0  0  0
  1  3  2  0  0  0
  2  5  2  0  0  0
  4  6  2  0  0  0
  7  8  2  0  0  0
  9 10  2  0  0  0
 11 20  2  0  0  0
 12 15  2  0  0  0
 18 21  2  0  0  0
 25 22  2  0  0  0
 25 23  2  0  0  0
M  CHG  2  18   1  19  -1
M  END
> <rmsd>
0.495602518

$$$$
ZINC35397247


 26 27  0  0  0  0  0  0  0  0999 V2000
   -3.5698   -2.5595    0.5592 C   0  0  0  0  0
   -2.9149   -2.3216   -1.7541 C   0  0  0  0  0
   -3.3976   -1.1884    0.7491 C   0  0  0  0  0
   -2.7427   -0.9505   -1.5644 C   0  0  0  0  0
    0.8681    0.4572   -0.6590 C   0  0  0  0  0
   -0.0602    2.4527   -1.5605 C   0  0  0  0  0
    1.8378    0.4945   -1.6548 C   0  0  0  0  0
   -0.1025    1.4512   -0.6040 C   0  0  0  0  0
   -3.3284   -3.1261   -0.6923 C   0  0  0  0  0
   -2.9841   -0.3839   -0.3128 C   0  0  0  0  0
    1.7931    1.5387   -2.5645 C   0  0  0  0  0
    2.8649   -0.5598   -1.7111 C   0  0  0  0  0
    0.8311    1.9933   -8.1448 C   0  0  0  0  0
    4.0269    2.3006   -3.3325 C   0  0  0  0  0
    1.6145    1.1118   -7.1846 C   0  0  0  0  0
    1.8460    1.8134   -5.8444 C   0  0  0  0  0
    2.5776    0.9301   -4.8393 C   0  0  0  0  0
    0.8659    2.5223   -2.5429 N   0  0  0  0  0
   -1.1093    1.4400    0.4044 N   0  0  0  0  0
    2.7701    1.5830   -3.5740 N   0  0  0  0  0
    2.6290   -1.6168   -2.4068 O   0  0  0  0  0
    3.9635   -0.3883   -1.0623 O   0  0  0  0  0
   -3.6009    1.7335    1.0520 O   0  0  0  0  0
   -2.9446    2.0067   -1.3551 O   0  0  0  0  0
   -3.4924   -4.4431   -0.8742 F   0  0  0  0  0
   -2.7642    1.3557   -0.0717 S   0  0  0  0  0
  1  9  1  0  0  0
  2  4  1  0  0  0
  3 10  1  0  0  0
  5  8  1  0  0  0
  6 18  1  0  0  0
  7 11  1  0  0  0
  7 12  1  0  0  0
  8 19  1  0  0  0
  9 25  1  0  0  0
 11 20  1  0  0  0
 12 21  1  0  0  0
 13 15  1  0  0  0
 14 20  1  0  0  0
 15 16  1  0  0  0
 16 17  1  0  0  0
 17 20  1  0  0  0
 26 10  1  0  0  0
 26 19  1  0  0  0
  1  3  2  0  0  0
  2  9  2  0  0  0
  4 10  2  0  0  0
  5  7  2  0  0  0
  6  8  2  0  0  0
 11 18  2  0  0  0
 12 22  2  0  0  0
 26 23  2  0  0  0
 26 24  2  0  0  0
M  CHG  1  21  -1
M  END
> <rmsd>
0.51054275

$$$$
ZINC35397247


 26 27  0  0  0  0  0  0  0  0999 V2000
   -3.2789   -2.5840    0.4530 C   0  0  0  0  0
   -2.4319   -2.2550   -1.7856 C   0  0  0  0  0
   -3.2326   -1.2074    0.6729 C   0  0  0  0  0
   -2.3857   -0.8783   -1.5658 C   0  0  0  0  0
    1.0043    0.7855   -0.3090 C   0  0  0  0  0
    0.0112    2.7198   -1.2725 C   0  0  0  0  0
    2.0566    0.9149   -1.2085 C   0  0  0  0  0
   -0.0419    1.7010   -0.3350 C   0  0  0  0  0
   -2.8785   -3.1078   -0.7762 C   0  0  0  0  0
   -2.7861   -0.3545   -0.3365 C   0  0  0  0  0
    2.0156    1.9688   -2.1071 C   0  0  0  0  0
    3.1636   -0.0564   -1.1789 C   0  0  0  0  0
    1.5452    2.4488   -7.7480 C   0  0  0  0  0
    4.2449    2.9134   -2.6528 C   0  0  0  0  0
    2.3020    1.6127   -6.7277 C   0  0  0  0  0
    2.3522    2.3058   -5.3642 C   0  0  0  0  0
    3.0536    1.4632   -4.3041 C   0  0  0  0  0
    1.0165    2.8779   -2.1624 N   0  0  0  0  0
   -1.1343    1.5945    0.5738 N   0  0  0  0  0
    3.0759    2.1060   -3.0194 N   0  0  0  0  0
    3.0767   -1.1157   -1.9051 O   0  0  0  0  0
    4.1803    0.1871   -0.4277 O   0  0  0  0  0
   -3.6906    1.6844    0.9866 O   0  0  0  0  0
   -2.8362    2.0504   -1.3448 O   0  0  0  0  0
   -2.9217   -4.4300   -0.9869 F   0  0  0  0  0
   -2.7260    1.3922   -0.0572 S   0  0  0  0  0
  1  9  1  0  0  0
  2  4  1  0  0  0
  3 10  1  0  0  0
  5  8  1  0  0  0
  6 18  1  0  0  0
  7 11  1  0  0  0
  7 12  1  0  0  0
  8 19  1  0  0  0
  9 25  1  0  0  0
 11 20  1  0  0  0
 12 21  1  0  0  0
 13 15  1  0  0  0
 14 20  1  0  0  0
 15 16  1  0  0  0
 16 17  1  0  0  0
 17 20  1  0  0  0
 26 10  1  0  0  0
 26 19  1  0  0  0
  1  3  2  0  0  0
  2  9  2  0  0  0
  4 10  2  0  0  0
  5  7  2  0  0  0
  6  8  2  0  0  0
 11 18  2  0  0  0
 12 22  2  0  0  0
 26 23  2  0  0  0
 26 24  2  0  0  0
M  CHG  1  21  -1
M  END
> <rmsd>
0.689511359

$$$$
ZINC07053233


 24 25  0  0  0  0  0  0  0  0999 V2000
    1.6660    2.5892   -1.4416 C   0  0  0  0  0
    0.5219    2.6302   -0.6448 C   0  0  0  0  0
    2.2921    1.3701   -1.7009 C   0  0  0  0  0
   -3.4715   -1.1493    0.7601 C   0  0  0  0  0
   -3.6011   -2.5300    0.6104 C   0  0  0  0  0
   -2.3975   -1.0158   -1.3999 C   0  0  0  0  0
    0.6301    0.2327   -0.3664 C   0  0  0  0  0
   -2.5271   -2.3965   -1.5497 C   0  0  0  0  0
    0.0039    1.4519   -0.1071 C   0  0  0  0  0
    1.7742    0.1918   -1.1632 C   0  0  0  0  0
   -2.8697   -0.3921   -0.2451 C   0  0  0  0  0
   -3.1289   -3.1536   -0.5445 C   0  0  0  0  0
   -2.0085   -3.0268   -2.8018 C   0  0  0  0  0
   -1.1755    1.4944    0.7147 N   0  0  0  0  0
    2.4114   -1.0490   -1.4284 N   0  0  0  0  0
    3.4389   -1.0633   -2.1486 O   0  0  0  0  0
    1.9300   -2.0976   -0.9351 O   0  0  0  0  0
   -3.7341    1.7792    0.8792 O   0  0  0  0  0
   -2.6531    1.9464   -1.3798 O   0  0  0  0  0
   -1.4530   -2.1335   -3.6712 F   0  0  0  0  0
   -1.0390   -3.9609   -2.5788 F   0  0  0  0  0
   -2.9842   -3.6686   -3.5058 F   0  0  0  0  0
   -2.7077    1.3361   -0.0570 S   0  0  0  0  0
   -3.3068   -4.8638   -0.6945 Cl  0  0  0  0  0
  1  2  1  0  0  0
  3 10  1  0  0  0
  4 11  1  0  0  0
  5 12  1  0  0  0
  6  8  1  0  0  0
  7  9  1  0  0  0
  9 14  1  0  0  0
 10 15  1  0  0  0
 12 24  1  0  0  0
 13  8  1  0  0  0
 13 20  1  0  0  0
 13 21  1  0  0  0
 13 22  1  0  0  0
 15 16  1  0  0  0
 23 11  1  0  0  0
 23 14  1  0  0  0
  1  3  2  0  0  0
  2  9  2  0  0  0
  4  5  2  0  0  0
  6 11  2  0  0  0
  7 10  2  0  0  0
  8 12  2  0  0  0
 15 17  2  0  0  0
 23 18  2  0  0  0
 23 19  2  0  0  0
M  CHG  2  15   1  16  -1
M  END
> <rmsd>
0.559708714

$$$$
ZINC02869959


 27 29  0  0  0  0  0  0  0  0999 V2000
   -3.6560   -2.9418   -0.9757 C   0  0  0  0  0
   -3.6649   -1.9299   -1.9357 C   0  0  0  0  0
   -3.6377   -2.6164    0.3806 C   0  0  0  0  0
    2.4411    0.4530    1.5780 C   0  0  0  0  0
   -3.6552   -0.5925   -1.5393 C   0  0  0  0  0
   -3.6281   -1.2791    0.7769 C   0  0  0  0  0
   -0.9541    2.8372   -3.2751 C   0  0  0  0  0
   -0.3187    4.1369   -1.3401 C   0  0  0  0  0
    1.2115    1.1079    1.5088 C   0  0  0  0  0
    2.9797   -0.1419    0.4371 C   0  0  0  0  0
   -0.4212    3.8194   -4.1098 C   0  0  0  0  0
    0.2144    5.1191   -2.1749 C   0  0  0  0  0
    1.0590    0.5730   -0.8424 C   0  0  0  0  0
   -3.6368   -0.2670   -0.1831 C   0  0  0  0  0
   -0.9030    2.9960   -1.8901 C   0  0  0  0  0
    0.5204    1.1679    0.2985 C   0  0  0  0  0
    2.2887   -0.0818   -0.7731 C   0  0  0  0  0
    0.1631    4.9603   -3.5598 C   0  0  0  0  0
   -3.6265    1.1272    0.2299 C   0  0  0  0  0
   -2.9648    2.1913   -0.6716 C   0  0  0  0  0
   -1.4807    1.9281   -0.9833 C   0  0  0  0  0
   -0.6995    1.8176    0.2298 N   0  0  0  0  0
    2.8374   -0.6895   -1.9336 N   0  0  0  0  0
    3.9440   -1.2746   -1.8478 O   0  0  0  0  0
   -4.1400    1.4726    1.3134 O   0  0  0  0  0
    2.2002   -0.6249   -3.0125 O   0  0  0  0  0
    0.8228    6.1710   -4.5894 Cl  0  0  0  0  0
  1  2  1  0  0  0
  3  6  1  0  0  0
  4 10  1  0  0  0
  5 14  1  0  0  0
  7 15  1  0  0  0
  8 12  1  0  0  0
  9 16  1  0  0  0
 11 18  1  0  0  0
 13 17  1  0  0  0
 14 19  1  0  0  0
 16 22  1  0  0  0
 17 23  1  0  0  0
 18 27  1  0  0  0
 20 19  1  0  0  0
 20 21  1  0  0  0
 21 15  1  0  0  0
 21 22  1  0  0  0
 23 24  1  0  0  0
  1  3  2  0  0  0
  2  5  2  0  0  0
  4  9  2  0  0  0
  6 14  2  0  0  0
  7 11  2  0  0  0
  8 15  2  0  0  0
 10 17  2  0  0  0
 12 18  2  0  0  0
 13 16  2  0  0  0
 19 25  2  0  0  0
 23 26  2  0  0  0
M  CHG  2  23   1  24  -1
M  END
> <rmsd>
0.432619274

$$$$
ZINC64843334


 25 27  0  0  0  0  0  0  0  0999 V2000
   -3.3104   -2.5496    0.4826 C   0  0  0  0  0
   -2.9177   -3.1078   -0.7339 C   0  0  0  0  0
   -3.2435   -1.1691    0.6705 C   0  0  0  0  0
   -2.4580   -2.2853   -1.7625 C   0  0  0  0  0
    1.0091    0.7837   -0.3042 C   0  0  0  0  0
    0.0247    2.7294   -1.2540 C   0  0  0  0  0
    2.0656    0.9189   -1.1981 C   0  0  0  0  0
   -0.0347    1.7020   -0.3263 C   0  0  0  0  0
   -2.7837   -0.3467   -0.3581 C   0  0  0  0  0
   -2.3910   -0.9048   -1.5747 C   0  0  0  0  0
    2.0308    1.9812   -2.0871 C   0  0  0  0  0
    3.1701   -0.0552   -1.1729 C   0  0  0  0  0
    4.5973    1.7042   -4.7795 C   0  0  0  0  0
    4.9964    3.0017   -4.1060 C   0  0  0  0  0
    3.1503    1.5254   -4.3345 C   0  0  0  0  0
    4.3210    2.8951   -2.7435 C   0  0  0  0  0
    1.0342    2.8932   -2.1382 N   0  0  0  0  0
    3.0972    2.1244   -2.9952 N   0  0  0  0  0
   -1.1312    1.5899    0.5770 N   0  0  0  0  0
    3.0837   -1.1077   -1.9091 O   0  0  0  0  0
    4.1841    0.1788   -0.4151 O   0  0  0  0  0
   -3.6890    1.6822    0.9799 O   0  0  0  0  0
   -2.8239    2.0676   -1.3444 O   0  0  0  0  0
   -2.7206    1.3972   -0.0625 S   0  0  0  0  0
   -1.8140    0.0682   -2.8795 Cl  0  0  0  0  0
  1  2  1  0  0  0
  3  9  1  0  0  0
  4 10  1  0  0  0
  5  8  1  0  0  0
  6 17  1  0  0  0
  7 11  1  0  0  0
  7 12  1  0  0  0
  8 19  1  0  0  0
 10 25  1  0  0  0
 11 18  1  0  0  0
 12 20  1  0  0  0
 13 14  1  0  0  0
 13 15  1  0  0  0
 14 16  1  0  0  0
 15 18  1  0  0  0
 16 18  1  0  0  0
 24  9  1  0  0  0
 24 19  1  0  0  0
  1  3  2  0  0  0
  2  4  2  0  0  0
  5  7  2  0  0  0
  6  8  2  0  0  0
  9 10  2  0  0  0
 11 17  2  0  0  0
 12 21  2  0  0  0
 24 22  2  0  0  0
 24 23  2  0  0  0
M  CHG  1  20  -1
M  END
> <rmsd>
0.675636709

$$$$
ZINC64843334


 25 27  0  0  0  0  0  0  0  0999 V2000
   -3.5925   -2.5232    0.5875 C   0  0  0  0  0
   -3.3608   -3.1216   -0.6510 C   0  0  0  0  0
   -3.4035   -1.1501    0.7449 C   0  0  0  0  0
   -2.9400   -2.3470   -1.7320 C   0  0  0  0  0
    0.8728    0.4596   -0.6587 C   0  0  0  0  0
   -0.0472    2.4660   -1.5443 C   0  0  0  0  0
    1.8466    0.5043   -1.6503 C   0  0  0  0  0
   -0.0957    1.4553   -0.5979 C   0  0  0  0  0
   -2.9826   -0.3756   -0.3361 C   0  0  0  0  0
   -2.7510   -0.9740   -1.5747 C   0  0  0  0  0
    1.8080    1.5575   -2.5498 C   0  0  0  0  0
    2.8714   -0.5518   -1.7127 C   0  0  0  0  0
    4.0781    1.0576   -5.4669 C   0  0  0  0  0
    4.6368    2.3268   -4.8560 C   0  0  0  0  0
    2.6707    0.9951   -4.8846 C   0  0  0  0  0
    4.0881    2.2857   -3.4344 C   0  0  0  0  0
    0.8831    2.5431   -2.5223 N   0  0  0  0  0
    2.7909    1.6093   -3.5566 N   0  0  0  0  0
   -1.1066    1.4367    0.4064 N   0  0  0  0  0
    2.6358   -1.6015   -2.4196 O   0  0  0  0  0
    3.9678   -0.3893   -1.0579 O   0  0  0  0  0
   -3.6000    1.7298    1.0467 O   0  0  0  0  0
   -2.9334    2.0250   -1.3549 O   0  0  0  0  0
   -2.7597    1.3611   -0.0773 S   0  0  0  0  0
   -2.2287   -0.0610   -2.9443 Cl  0  0  0  0  0
  1  2  1  0  0  0
  3  9  1  0  0  0
  4 10  1  0  0  0
  5  8  1  0  0  0
  6 17  1  0  0  0
  7 11  1  0  0  0
  7 12  1  0  0  0
  8 19  1  0  0  0
 10 25  1  0  0  0
 11 18  1  0  0  0
 12 20  1  0  0  0
 13 14  1  0  0  0
 13 15  1  0  0  0
 14 16  1  0  0  0
 15 18  1  0  0  0
 16 18  1  0  0  0
 24  9  1  0  0  0
 24 19  1  0  0  0
  1  3  2  0  0  0
  2  4  2  0  0  0
  5  7  2  0  0  0
  6  8  2  0  0  0
  9 10  2  0  0  0
 11 17  2  0  0  0
 12 21  2  0  0  0
 24 22  2  0  0  0
 24 23  2  0  0  0
M  CHG  1  20  -1
M  END
> <rmsd>
0.499151289

$$$$
ZINC32754968


 26 27  0  0  0  0  0  0  0  0999 V2000
   -0.1022    2.4928   -1.5701 C   0  0  0  0  0
   -3.5493   -2.5642    0.5452 C   0  0  0  0  0
    0.8762    2.5128   -2.5640 C   0  0  0  0  0
   -3.3834   -1.1932    0.7408 C   0  0  0  0  0
    0.8574    0.4681   -0.6662 C   0  0  0  0  0
   -2.7435   -0.9401   -1.5750 C   0  0  0  0  0
    1.8357    0.4881   -1.6603 C   0  0  0  0  0
   -0.1116    1.4705   -0.6210 C   0  0  0  0  0
   -2.9092   -2.3112   -1.7706 C   0  0  0  0  0
   -3.3121   -3.1233   -0.7106 C   0  0  0  0  0
    1.8451    1.5104   -2.6092 C   0  0  0  0  0
   -2.9806   -0.3812   -0.3192 C   0  0  0  0  0
    2.8573   -0.5705   -1.7049 C   0  0  0  0  0
   -2.2595   -2.1925   -4.1972 C   0  0  0  0  0
   -2.1079   -3.1432   -5.3580 C   0  0  0  0  0
   -4.7756   -4.9105   -1.2760 C   0  0  0  0  0
   -2.6669   -2.8565   -3.0338 N   0  0  0  0  0
   -1.1131    1.4505    0.3963 N   0  0  0  0  0
    2.8242   -1.5016   -0.8157 O   0  0  0  0  0
    3.7509   -0.5308   -2.6314 O   0  0  0  0  0
   -2.0317   -0.9947   -4.3324 O   0  0  0  0  0
   -3.5997    1.7254    1.0610 O   0  0  0  0  0
   -2.9618    2.0152   -1.3490 O   0  0  0  0  0
   -3.4801   -4.4651   -0.8804 O   0  0  0  0  0
    2.7807    1.5393   -3.5687 F   0  0  0  0  0
   -2.7688    1.3584   -0.0705 S   0  0  0  0  0
  1  8  1  0  0  0
  2 10  1  0  0  0
  3 11  1  0  0  0
  4 12  1  0  0  0
  5  7  1  0  0  0
  6  9  1  0  0  0
  7 13  1  0  0  0
  8 18  1  0  0  0
  9 17  1  0  0  0
 10 24  1  0  0  0
 11 25  1  0  0  0
 13 19  1  0  0  0
 14 17  1  0  0  0
 15 14  1  0  0  0
 16 24  1  0  0  0
 26 12  1  0  0  0
 26 18  1  0  0  0
  1  3  2  0  0  0
  2  4  2  0  0  0
  5  8  2  0  0  0
  6 12  2  0  0  0
  7 11  2  0  0  0
  9 10  2  0  0  0
 13 20  2  0  0  0
 14 21  2  0  0  0
 26 22  2  0  0  0
 26 23  2  0  0  0
M  CHG  1  19  -1
M  END
> <rmsd>
0.520010889

$$$$
ZINC00816437


 27 30  0  0  0  0  0  0  0  0999 V2000
   -3.7348   -2.4917    0.9414 C   0  0  0  0  0
   -3.3987   -1.1465    0.6595 C   0  0  0  0  0
   -3.8671   -3.4467   -0.0817 C   0  0  0  0  0
    1.6160    1.7698   -1.7344 C   0  0  0  0  0
    1.6943   -0.4098   -0.6950 C   0  0  0  0  0
   -2.8401   -0.2839   -3.4750 C   0  0  0  0  0
    0.5017    2.0979   -0.9623 C   0  0  0  0  0
    0.5800   -0.0816    0.0772 C   0  0  0  0  0
   -2.6788    0.7608   -2.5471 C   0  0  0  0  0
   -3.1865   -0.7294   -0.6719 C   0  0  0  0  0
   -3.3314   -1.7182   -1.6390 C   0  0  0  0  0
   -3.6563   -3.0231   -1.3764 C   0  0  0  0  0
    2.2124    0.5158   -1.6008 C   0  0  0  0  0
   -3.1713   -1.5305   -2.9848 C   0  0  0  0  0
   -0.0163    1.1724   -0.0566 C   0  0  0  0  0
   -2.8479    0.5501   -1.1592 C   0  0  0  0  0
   -3.7075   -3.7317   -2.6733 C   0  0  0  0  0
    3.3888    0.1697   -2.4149 C   0  0  0  0  0
   -3.3191   -2.9443   -5.0544 C   0  0  0  0  0
   -3.3996   -2.7587   -3.6275 N   0  0  0  0  0
   -1.1662    1.5100    0.7384 N   0  0  0  0  0
    3.9205   -0.9946   -2.2720 O   0  0  0  0  0
   -3.9691   -4.9118   -2.8070 O   0  0  0  0  0
    3.8478    1.0425   -3.2432 O   0  0  0  0  0
   -3.7149    1.8768    0.8936 O   0  0  0  0  0
   -2.4330    3.1097   -0.8774 O   0  0  0  0  0
   -2.6293    1.9088   -0.0772 S   0  0  0  0  0
  1  3  1  0  0  0
  2 10  1  0  0  0
  4 13  1  0  0  0
  5  8  1  0  0  0
  6 14  1  0  0  0
  7 15  1  0  0  0
  9 16  1  0  0  0
 10 11  1  0  0  0
 11 12  1  0  0  0
 12 17  1  0  0  0
 13 18  1  0  0  0
 14 20  1  0  0  0
 15 21  1  0  0  0
 17 20  1  0  0  0
 18 22  1  0  0  0
 19 20  1  0  0  0
 27 16  1  0  0  0
 27 21  1  0  0  0
  1  2  2  0  0  0
  3 12  2  0  0  0
  4  7  2  0  0  0
  5 13  2  0  0  0
  6  9  2  0  0  0
  8 15  2  0  0  0
 10 16  2  0  0  0
 11 14  2  0  0  0
 17 23  2  0  0  0
 18 24  2  0  0  0
 27 25  2  0  0  0
 27 26  2  0  0  0
M  CHG  1  22  -1
M  END
> <rmsd>
0.492966384

$$$$
ZINC35397463


 26 28  0  0  0  0  0  0  0  0999 V2000
   -3.2793   -2.5839    0.4534 C   0  0  0  0  0
   -3.2331   -1.2072    0.6726 C   0  0  0  0  0
    1.0041    0.7846   -0.3096 C   0  0  0  0  0
   -2.3858   -0.8791   -1.5659 C   0  0  0  0  0
    0.0112    2.7192   -1.2731 C   0  0  0  0  0
    2.0564    0.9139   -1.2091 C   0  0  0  0  0
   -0.0419    1.7003   -0.3356 C   0  0  0  0  0
   -2.8787   -3.1083   -0.7756 C   0  0  0  0  0
   -2.4320   -2.2558   -1.7852 C   0  0  0  0  0
   -2.7863   -0.3548   -0.3369 C   0  0  0  0  0
    2.0155    1.9679   -2.1077 C   0  0  0  0  0
    3.1632   -0.0574   -1.1796 C   0  0  0  0  0
    4.5712    1.6719   -4.8083 C   0  0  0  0  0
    4.9702    2.9764   -4.1485 C   0  0  0  0  0
    3.1265    1.4939   -4.3556 C   0  0  0  0  0
    4.3008    2.8809   -2.7823 C   0  0  0  0  0
    1.0165    2.8771   -2.1630 N   0  0  0  0  0
    3.0776    2.1052   -3.0216 N   0  0  0  0  0
   -1.1344    1.5940    0.5733 N   0  0  0  0  0
    3.0762   -1.1168   -1.9057 O   0  0  0  0  0
    4.1800    0.1859   -0.4284 O   0  0  0  0  0
   -3.6906    1.6842    0.9861 O   0  0  0  0  0
   -2.8363    2.0502   -1.3452 O   0  0  0  0  0
   -2.9230   -4.4302   -0.9869 F   0  0  0  0  0
   -2.0484   -2.7591   -2.9657 F   0  0  0  0  0
   -2.7260    1.3919   -0.0577 S   0  0  0  0  0
  1  2  1  0  0  0
  3  7  1  0  0  0
  4 10  1  0  0  0
  5 17  1  0  0  0
  6 11  1  0  0  0
  6 12  1  0  0  0
  7 19  1  0  0  0
  8  9  1  0  0  0
  8 24  1  0  0  0
  9 25  1  0  0  0
 11 18  1  0  0  0
 12 20  1  0  0  0
 13 14  1  0  0  0
 13 15  1  0  0  0
 14 16  1  0  0  0
 15 18  1  0  0  0
 16 18  1  0  0  0
 26 10  1  0  0  0
 26 19  1  0  0  0
  1  8  2  0  0  0
  2 10  2  0  0  0
  3  6  2  0  0  0
  4  9  2  0  0  0
  5  7  2  0  0  0
 11 17  2  0  0  0
 12 21  2  0  0  0
 26 22  2  0  0  0
 26 23  2  0  0  0
M  CHG  1  20  -1
M  END
> <rmsd>
0.689527392

$$$$
ZINC35397463


 26 28  0  0  0  0  0  0  0  0999 V2000
   -3.5696   -2.5595    0.5594 C   0  0  0  0  0
   -3.3977   -1.1883    0.7487 C   0  0  0  0  0
    0.8677    0.4571   -0.6599 C   0  0  0  0  0
   -2.7429   -0.9510   -1.5646 C   0  0  0  0  0
   -0.0608    2.4527   -1.5611 C   0  0  0  0  0
    1.8373    0.4945   -1.6558 C   0  0  0  0  0
   -0.1030    1.4511   -0.6047 C   0  0  0  0  0
   -3.3281   -3.1265   -0.6920 C   0  0  0  0  0
   -2.9148   -2.3222   -1.7540 C   0  0  0  0  0
   -2.9843   -0.3840   -0.3132 C   0  0  0  0  0
    1.7925    1.5389   -2.5654 C   0  0  0  0  0
    2.8644   -0.5596   -1.7123 C   0  0  0  0  0
    4.0518    1.0162   -5.4868 C   0  0  0  0  0
    4.6099    2.2926   -4.8906 C   0  0  0  0  0
    2.6469    0.9560   -4.8982 C   0  0  0  0  0
    4.0671    2.2640   -3.4664 C   0  0  0  0  0
    0.8652    2.5225   -2.5435 N   0  0  0  0  0
    2.7710    1.5833   -3.5767 N   0  0  0  0  0
   -1.1096    1.4398    0.4039 N   0  0  0  0  0
    2.6284   -1.6167   -2.4080 O   0  0  0  0  0
    3.9631   -0.3883   -1.0636 O   0  0  0  0  0
   -3.6011    1.7332    1.0517 O   0  0  0  0  0
   -2.9451    2.0067   -1.3554 O   0  0  0  0  0
   -3.4931   -4.4431   -0.8746 F   0  0  0  0  0
   -2.6839   -2.8663   -2.9559 F   0  0  0  0  0
   -2.7645    1.3555   -0.0722 S   0  0  0  0  0
  1  2  1  0  0  0
  3  7  1  0  0  0
  4 10  1  0  0  0
  5 17  1  0  0  0
  6 11  1  0  0  0
  6 12  1  0  0  0
  7 19  1  0  0  0
  8  9  1  0  0  0
  8 24  1  0  0  0
  9 25  1  0  0  0
 11 18  1  0  0  0
 12 20  1  0  0  0
 13 14  1  0  0  0
 13 15  1  0  0  0
 14 16  1  0  0  0
 15 18  1  0  0  0
 16 18  1  0  0  0
 26 10  1  0  0  0
 26 19  1  0  0  0
  1  8  2  0  0  0
  2 10  2  0  0  0
  3  6  2  0  0  0
  4  9  2  0  0  0
  5  7  2  0  0  0
 11 17  2  0  0  0
 12 21  2  0  0  0
 26 22  2  0  0  0
 26 23  2  0  0  0
M  CHG  1  20  -1
M  END
> <rmsd>
0.510632217

$$$$
ZINC35397463


 26 28  0  0  0  0  0  0  0  0999 V2000
   -2.4352   -2.2555   -1.7860 C   0  0  0  0  0
   -2.3867   -0.8790   -1.5657 C   0  0  0  0  0
    1.0043    0.7855   -0.3097 C   0  0  0  0  0
   -3.2336   -1.2075    0.6730 C   0  0  0  0  0
    0.0107    2.7194   -1.2738 C   0  0  0  0  0
    2.0565    0.9147   -1.2094 C   0  0  0  0  0
   -0.0420    1.7009   -0.3360 C   0  0  0  0  0
   -2.8830   -3.1079   -0.7768 C   0  0  0  0  0
   -3.2822   -2.5840    0.4526 C   0  0  0  0  0
   -2.7858   -0.3550   -0.3362 C   0  0  0  0  0
    2.0151    1.9683   -2.1084 C   0  0  0  0  0
    3.1636   -0.0563   -1.1797 C   0  0  0  0  0
    4.5706    1.6720   -4.8092 C   0  0  0  0  0
    4.9693    2.9769   -4.1500 C   0  0  0  0  0
    3.1260    1.4938   -4.3562 C   0  0  0  0  0
    4.3001    2.8817   -2.7836 C   0  0  0  0  0
    1.0159    2.8773   -2.1639 N   0  0  0  0  0
    3.0771    2.1056   -3.0225 N   0  0  0  0  0
   -1.1343    1.5946    0.5731 N   0  0  0  0  0
    3.0767   -1.1160   -1.9054 O   0  0  0  0  0
    4.1803    0.1876   -0.4287 O   0  0  0  0  0
   -3.6905    1.6843    0.9862 O   0  0  0  0  0
   -2.8366    2.0496   -1.3454 O   0  0  0  0  0
   -2.9296   -4.4299   -0.9877 F   0  0  0  0  0
   -3.7111   -3.4027    1.4221 F   0  0  0  0  0
   -2.7260    1.3918   -0.0576 S   0  0  0  0  0
  1  2  1  0  0  0
  3  7  1  0  0  0
  4 10  1  0  0  0
  5 17  1  0  0  0
  6 11  1  0  0  0
  6 12  1  0  0  0
  7 19  1  0  0  0
  8  9  1  0  0  0
  8 24  1  0  0  0
  9 25  1  0  0  0
 11 18  1  0  0  0
 12 20  1  0  0  0
 13 14  1  0  0  0
 13 15  1  0  0  0
 14 16  1  0  0  0
 15 18  1  0  0  0
 16 18  1  0  0  0
 26 10  1  0  0  0
 26 19  1  0  0  0
  1  8  2  0  0  0
  2 10  2  0  0  0
  3  6  2  0  0  0
  4  9  2  0  0  0
  5  7  2  0  0  0
 11 17  2  0  0  0
 12 21  2  0  0  0
 26 22  2  0  0  0
 26 23  2  0  0  0
M  CHG  1  20  -1
M  END
> <rmsd>
0.6883111

$$$$
ZINC35397463


 26 28  0  0  0  0  0  0  0  0999 V2000
   -2.9179   -2.3216   -1.7546 C   0  0  0  0  0
   -2.7436   -0.9508   -1.5644 C   0  0  0  0  0
    0.8680    0.4578   -0.6598 C   0  0  0  0  0
   -3.3984   -1.1885    0.7491 C   0  0  0  0  0
   -0.0611    2.4528   -1.5616 C   0  0  0  0  0
    1.8375    0.4952   -1.6559 C   0  0  0  0  0
   -0.1029    1.4516   -0.6049 C   0  0  0  0  0
   -3.3325   -3.1258   -0.6929 C   0  0  0  0  0
   -3.5727   -2.5594    0.5588 C   0  0  0  0  0
   -2.9838   -0.3843   -0.3126 C   0  0  0  0  0
    1.7923    1.5392   -2.5658 C   0  0  0  0  0
    2.8649   -0.5587   -1.7120 C   0  0  0  0  0
    4.0515    1.0161   -5.4872 C   0  0  0  0  0
    4.6093    2.2929   -4.8915 C   0  0  0  0  0
    2.6467    0.9557   -4.8984 C   0  0  0  0  0
    4.0667    2.2646   -3.4672 C   0  0  0  0  0
    0.8648    2.5225   -2.5442 N   0  0  0  0  0
    2.7708    1.5836   -3.5771 N   0  0  0  0  0
   -1.1095    1.4403    0.4038 N   0  0  0  0  0
    2.6292   -1.6161   -2.4074 O   0  0  0  0  0
    3.9636   -0.3868   -1.0635 O   0  0  0  0  0
   -3.6010    1.7332    1.0517 O   0  0  0  0  0
   -2.9453    2.0061   -1.3555 O   0  0  0  0  0
   -3.4998   -4.4423   -0.8749 F   0  0  0  0  0
   -3.9697   -3.3318    1.5786 F   0  0  0  0  0
   -2.7644    1.3554   -0.0721 S   0  0  0  0  0
  1  2  1  0  0  0
  3  7  1  0  0  0
  4 10  1  0  0  0
  5 17  1  0  0  0
  6 11  1  0  0  0
  6 12  1  0  0  0
  7 19  1  0  0  0
  8  9  1  0  0  0
  8 24  1  0  0  0
  9 25  1  0  0  0
 11 18  1  0  0  0
 12 20  1  0  0  0
 13 14  1  0  0  0
 13 15  1  0  0  0
 14 16  1  0  0  0
 15 18  1  0  0  0
 16 18  1  0  0  0
 26 10  1  0  0  0
 26 19  1  0  0  0
  1  8  2  0  0  0
  2 10  2  0  0  0
  3  6  2  0  0  0
  4  9  2  0  0  0
  5  7  2  0  0  0
 11 17  2  0  0  0
 12 21  2  0  0  0
 26 22  2  0  0  0
 26 23  2  0  0  0
M  CHG  1  20  -1
M  END
> <rmsd>
0.509534657

$$$$
ZINC15924747


 25 27  0  0  0  0  0  0  0  0999 V2000
   -2.4605   -1.1837   -1.0193 C   0  0  0  0  0
   -3.2366   -0.4276   -0.1661 C   0  0  0  0  0
   -3.9334   -2.7133   -0.4707 C   0  0  0  0  0
    3.7227    0.0362    0.6686 C   0  0  0  0  0
    3.1339    0.5385   -0.4308 C   0  0  0  0  0
    1.1013    1.8721   -1.1275 C   0  0  0  0  0
   -3.1021    0.9959    0.2446 C   0  0  0  0  0
    3.6704    0.0643   -1.7644 C   0  0  0  0  0
   -1.9654    1.8105   -0.3146 C   0  0  0  0  0
    3.2605    0.2630    2.0889 C   0  0  0  0  0
    0.3883    2.4366    0.1398 C   0  0  0  0  0
    1.6830    2.0439    0.8880 C   0  0  0  0  0
   -4.5991    3.3796    2.2468 C   0  0  0  0  0
   -2.8583   -2.4947   -1.1949 N   0  0  0  0  0
   -3.9439    1.5313    1.0763 N   0  0  0  0  0
    2.0725    1.3711   -0.3386 N   0  0  0  0  0
   -4.5896   -3.9028   -0.4139 N   0  0  0  0  0
   -0.8503    1.7347    0.4726 N   0  0  0  0  0
    3.5935   -1.1811   -1.9608 O   0  0  0  0  0
    0.8681    1.8098   -2.3116 O   0  0  0  0  0
    4.1271    0.9739   -2.5125 O   0  0  0  0  0
   -2.1496    2.4172   -1.3574 O   0  0  0  0  0
   -3.6362    2.8742    1.3348 O   0  0  0  0  0
   -4.5203   -1.3863    0.4456 S   0  0  0  0  0
    1.5193    0.8156    2.2100 S   0  0  0  0  0
  1 14  1  0  0  0
  2  7  1  0  0  0
  2 24  1  0  0  0
  3 17  1  0  0  0
  3 24  1  0  0  0
  5  8  1  0  0  0
  5 16  1  0  0  0
  6 16  1  0  0  0
  7  9  1  0  0  0
  8 19  1  0  0  0
  9 18  1  0  0  0
 10  4  1  0  0  0
 10 25  1  0  0  0
 11  6  1  0  0  0
 11 12  1  0  0  0
 11 18  1  0  0  0
 12 16  1  0  0  0
 12 25  1  0  0  0
 13 23  1  0  0  0
 15 23  1  0  0  0
  1  2  2  0  0  0
  3 14  2  0  0  0
  4  5  2  0  0  0
  6 20  2  0  0  0
  7 15  2  0  0  0
  8 21  2  0  0  0
  9 22  2  0  0  0
M  CHG  1  19  -1
M  END
> <rmsd>
0.329988033

$$$$
ZINC15924747


 25 27  0  0  0  0  0  0  0  0999 V2000
   -2.6771   -1.3383   -0.8767 C   0  0  0  0  0
   -3.3822   -0.4570   -0.0841 C   0  0  0  0  0
   -4.2936   -2.6808   -0.2485 C   0  0  0  0  0
    3.5842   -0.6061    0.8055 C   0  0  0  0  0
    3.0531   -0.1232   -0.3314 C   0  0  0  0  0
    1.1625    1.3497   -1.1385 C   0  0  0  0  0
   -3.1140    0.9711    0.2351 C   0  0  0  0  0
    3.5499   -0.7331   -1.6247 C   0  0  0  0  0
   -1.9008    1.6348   -0.3615 C   0  0  0  0  0
    3.1371   -0.2433    2.2022 C   0  0  0  0  0
    0.4993    2.0618    0.0806 C   0  0  0  0  0
    1.7455    1.5973    0.8687 C   0  0  0  0  0
   -4.3874    3.6133    2.0596 C   0  0  0  0  0
   -3.1980   -2.6139   -0.9718 N   0  0  0  0  0
   -3.9057    1.6380    1.0198 N   0  0  0  0  0
    2.0762    0.8112   -0.3067 N   0  0  0  0  0
   -5.0614   -3.7958   -0.1229 N   0  0  0  0  0
   -0.8031    1.5049    0.4428 N   0  0  0  0  0
    3.3549   -1.9757   -1.7409 O   0  0  0  0  0
    0.9318    1.2323   -2.3189 O   0  0  0  0  0
    4.0965    0.0775   -2.4244 O   0  0  0  0  0
   -2.0195    2.1865   -1.4438 O   0  0  0  0  0
   -3.4719    2.9594    1.1944 O   0  0  0  0  0
   -4.7559   -1.2464    0.5725 S   0  0  0  0  0
    1.4564    0.4798    2.2655 S   0  0  0  0  0
  1 14  1  0  0  0
  2  7  1  0  0  0
  2 24  1  0  0  0
  3 17  1  0  0  0
  3 24  1  0  0  0
  5  8  1  0  0  0
  5 16  1  0  0  0
  6 16  1  0  0  0
  7  9  1  0  0  0
  8 19  1  0  0  0
  9 18  1  0  0  0
 10  4  1  0  0  0
 10 25  1  0  0  0
 11  6  1  0  0  0
 11 12  1  0  0  0
 11 18  1  0  0  0
 12 16  1  0  0  0
 12 25  1  0  0  0
 13 23  1  0  0  0
 15 23  1  0  0  0
  1  2  2  0  0  0
  3 14  2  0  0  0
  4  5  2  0  0  0
  6 20  2  0  0  0
  7 15  2  0  0  0
  8 21  2  0  0  0
  9 22  2  0  0  0
M  CHG  1  19  -1
M  END
> <rmsd>
0.0954744294

$$$$
ZINC03830477


 25 27  0  0  0  0  0  0  0  0999 V2000
   -4.2477   -1.2835    0.3196 C   0  0  0  0  0
   -3.2512   -0.4493   -0.1420 C   0  0  0  0  0
   -2.6701   -2.2771   -1.2055 C   0  0  0  0  0
    3.7103    0.0384    0.6592 C   0  0  0  0  0
    3.1158    0.5283   -0.4427 C   0  0  0  0  0
    1.0775    1.8503   -1.1445 C   0  0  0  0  0
   -3.1183    0.9786    0.2538 C   0  0  0  0  0
    3.6480    0.0419   -1.7737 C   0  0  0  0  0
   -1.9857    1.7901   -0.3183 C   0  0  0  0  0
    3.2534    0.2785    2.0791 C   0  0  0  0  0
    0.3684    2.4260    0.1200 C   0  0  0  0  0
    1.6670    2.0437    0.8668 C   0  0  0  0  0
   -4.6125    3.3791    2.2379 C   0  0  0  0  0
   -2.3454   -1.0175   -1.0163 N   0  0  0  0  0
   -3.9579    1.5206    1.0835 N   0  0  0  0  0
    2.0530    1.3594   -0.3546 N   0  0  0  0  0
   -1.9861   -3.1319   -2.0114 N   0  0  0  0  0
   -0.8673    1.7247    0.4650 N   0  0  0  0  0
    3.5731   -1.2056   -1.9572 O   0  0  0  0  0
    0.8396    1.7755   -2.3269 O   0  0  0  0  0
    4.0995    0.9449   -2.5328 O   0  0  0  0  0
   -2.1756    2.3859   -1.3665 O   0  0  0  0  0
   -3.6522    2.8667    1.3271 O   0  0  0  0  0
   -4.0538   -2.8445   -0.3637 S   0  0  0  0  0
    1.5115    0.8284    2.2017 S   0  0  0  0  0
  1 24  1  0  0  0
  2  7  1  0  0  0
  2 14  1  0  0  0
  3 17  1  0  0  0
  3 24  1  0  0  0
  5  8  1  0  0  0
  5 16  1  0  0  0
  6 16  1  0  0  0
  7  9  1  0  0  0
  8 19  1  0  0  0
  9 18  1  0  0  0
 10  4  1  0  0  0
 10 25  1  0  0  0
 11  6  1  0  0  0
 11 12  1  0  0  0
 11 18  1  0  0  0
 12 16  1  0  0  0
 12 25  1  0  0  0
 13 23  1  0  0  0
 15 23  1  0  0  0
  1  2  2  0  0  0
  3 14  2  0  0  0
  4  5  2  0  0  0
  6 20  2  0  0  0
  7 15  2  0  0  0
  8 21  2  0  0  0
  9 22  2  0  0  0
M  CHG  1  19  -1
M  END
> <rmsd>
0.36962083

$$$$
ZINC03830477


 25 27  0  0  0  0  0  0  0  0999 V2000
   -4.4748   -1.1768    0.4425 C   0  0  0  0  0
   -3.3989   -0.4744   -0.0587 C   0  0  0  0  0
   -2.9896   -2.4158   -0.9932 C   0  0  0  0  0
    3.5711   -0.6059    0.8041 C   0  0  0  0  0
    3.0349   -0.1349   -0.3353 C   0  0  0  0  0
    1.1391    1.3275   -1.1493 C   0  0  0  0  0
   -3.1314    0.9571    0.2452 C   0  0  0  0  0
    3.5272   -0.7570   -1.6245 C   0  0  0  0  0
   -1.9214    1.6165   -0.3629 C   0  0  0  0  0
    3.1292   -0.2298    2.1990 C   0  0  0  0  0
    0.4798    2.0509    0.0653 C   0  0  0  0  0
    1.7299    1.5957    0.8530 C   0  0  0  0  0
   -4.4008    3.6157    2.0485 C   0  0  0  0  0
   -2.5459   -1.1835   -0.8818 N   0  0  0  0  0
   -3.9207    1.6308    1.0264 N   0  0  0  0  0
    2.0569    0.7985   -0.3160 N   0  0  0  0  0
   -2.3855   -3.3837   -1.7324 N   0  0  0  0  0
   -0.8204    1.4959    0.4382 N   0  0  0  0  0
    3.3334   -2.0009   -1.7276 O   0  0  0  0  0
    0.9038    1.1981   -2.3275 O   0  0  0  0  0
    4.0696    0.0464   -2.4344 O   0  0  0  0  0
   -2.0452    2.1573   -1.4501 O   0  0  0  0  0
   -3.4880    2.9545    1.1862 O   0  0  0  0  0
   -4.4278   -2.7908   -0.1352 S   0  0  0  0  0
    1.4478    0.4918    2.2619 S   0  0  0  0  0
  1 24  1  0  0  0
  2  7  1  0  0  0
  2 14  1  0  0  0
  3 17  1  0  0  0
  3 24  1  0  0  0
  5  8  1  0  0  0
  5 16  1  0  0  0
  6 16  1  0  0  0
  7  9  1  0  0  0
  8 19  1  0  0  0
  9 18  1  0  0  0
 10  4  1  0  0  0
 10 25  1  0  0  0
 11  6  1  0  0  0
 11 12  1  0  0  0
 11 18  1  0  0  0
 12 16  1  0  0  0
 12 25  1  0  0  0
 13 23  1  0  0  0
 15 23  1  0  0  0
  1  2  2  0  0  0
  3 14  2  0  0  0
  4  5  2  0  0  0
  6 20  2  0  0  0
  7 15  2  0  0  0
  8 21  2  0  0  0
  9 22  2  0  0  0
M  CHG  1  19  -1
M  END
> <rmsd>
0.119527556

$$$$
ZINC15924747


 25 27  0  0  0  0  0  0  0  0999 V2000
   -4.4263   -1.2752    0.3682 C   0  0  0  0  0
   -3.4014   -0.4553   -0.0553 C   0  0  0  0  0
   -3.3388   -2.7206   -0.8721 C   0  0  0  0  0
    3.5687   -0.6082    0.8041 C   0  0  0  0  0
    3.0333   -0.1348   -0.3347 C   0  0  0  0  0
    1.1415    1.3340   -1.1467 C   0  0  0  0  0
   -3.1294    0.9751    0.2496 C   0  0  0  0  0
    3.5232   -0.7573   -1.6247 C   0  0  0  0  0
   -1.9178    1.6314   -0.3585 C   0  0  0  0  0
    3.1285   -0.2319    2.1995 C   0  0  0  0  0
    0.4849    2.0583    0.0688 C   0  0  0  0  0
    1.7340    1.5988    0.8556 C   0  0  0  0  0
   -4.3901    3.6361    2.0557 C   0  0  0  0  0
   -4.3924   -2.5745   -0.0995 N   0  0  0  0  0
   -3.9164    1.6505    1.0317 N   0  0  0  0  0
    2.0581    0.8015   -0.3142 N   0  0  0  0  0
   -3.0018   -3.8809   -1.4957 N   0  0  0  0  0
   -0.8167    1.5069    0.4420 N   0  0  0  0  0
    3.3256   -2.0005   -1.7286 O   0  0  0  0  0
    0.9052    1.2062   -2.3249 O   0  0  0  0  0
    4.0675    0.0451   -2.4342 O   0  0  0  0  0
   -2.0405    2.1734   -1.4452 O   0  0  0  0  0
   -3.4796    2.9728    1.1924 O   0  0  0  0  0
   -2.3453   -1.3369   -1.0795 S   0  0  0  0  0
    1.4493    0.4946    2.2637 S   0  0  0  0  0
  1 14  1  0  0  0
  2  7  1  0  0  0
  2 24  1  0  0  0
  3 17  1  0  0  0
  3 24  1  0  0  0
  5  8  1  0  0  0
  5 16  1  0  0  0
  6 16  1  0  0  0
  7  9  1  0  0  0
  8 19  1  0  0  0
  9 18  1  0  0  0
 10  4  1  0  0  0
 10 25  1  0  0  0
 11  6  1  0  0  0
 11 12  1  0  0  0
 11 18  1  0  0  0
 12 16  1  0  0  0
 12 25  1  0  0  0
 13 23  1  0  0  0
 15 23  1  0  0  0
  1  2  2  0  0  0
  3 14  2  0  0  0
  4  5  2  0  0  0
  6 20  2  0  0  0
  7 15  2  0  0  0
  8 21  2  0  0  0
  9 22  2  0  0  0
M  CHG  1  19  -1
M  END
> <rmsd>
0.134360284

$$$$
ZINC15924747


 25 27  0  0  0  0  0  0  0  0999 V2000
   -4.1906   -1.3717    0.2407 C   0  0  0  0  0
   -3.2550   -0.4310   -0.1361 C   0  0  0  0  0
   -2.9865   -2.6226   -1.0993 C   0  0  0  0  0
    3.7087    0.0359    0.6590 C   0  0  0  0  0
    3.1147    0.5275   -0.4424 C   0  0  0  0  0
    1.0796    1.8555   -1.1426 C   0  0  0  0  0
   -3.1175    0.9965    0.2594 C   0  0  0  0  0
    3.6442    0.0394   -1.7739 C   0  0  0  0  0
   -1.9830    1.8045   -0.3138 C   0  0  0  0  0
    3.2537    0.2776    2.0793 C   0  0  0  0  0
    0.3734    2.4334    0.1224 C   0  0  0  0  0
    1.6714    2.0473    0.8681 C   0  0  0  0  0
   -4.6028    3.4016    2.2445 C   0  0  0  0  0
   -4.0386   -2.6288   -0.3110 N   0  0  0  0  0
   -3.9548    1.5410    1.0897 N   0  0  0  0  0
    2.0544    1.3618   -0.3535 N   0  0  0  0  0
   -2.5483   -3.7023   -1.7998 N   0  0  0  0  0
   -0.8641    1.7359    0.4686 N   0  0  0  0  0
    3.5655   -1.2079   -1.9571 O   0  0  0  0  0
    0.8405    1.7813   -2.3248 O   0  0  0  0  0
    4.0978    0.9409   -2.5334 O   0  0  0  0  0
   -2.1721    2.4007   -1.3618 O   0  0  0  0  0
   -3.6449    2.8863    1.3330 O   0  0  0  0  0
   -2.1334   -1.1388   -1.2235 S   0  0  0  0  0
    1.5135    0.8327    2.2034 S   0  0  0  0  0
  1 14  1  0  0  0
  2  7  1  0  0  0
  2 24  1  0  0  0
  3 17  1  0  0  0
  3 24  1  0  0  0
  5  8  1  0  0  0
  5 16  1  0  0  0
  6 16  1  0  0  0
  7  9  1  0  0  0
  8 19  1  0  0  0
  9 18  1  0  0  0
 10  4  1  0  0  0
 10 25  1  0  0  0
 11  6  1  0  0  0
 11 12  1  0  0  0
 11 18  1  0  0  0
 12 16  1  0  0  0
 12 25  1  0  0  0
 13 23  1  0  0  0
 15 23  1  0  0  0
  1  2  2  0  0  0
  3 14  2  0  0  0
  4  5  2  0  0  0
  6 20  2  0  0  0
  7 15  2  0  0  0
  8 21  2  0  0  0
  9 22  2  0  0  0
M  CHG  1  19  -1
M  END
> <rmsd>
0.376458973

$$$$
ZINC03830477


 25 27  0  0  0  0  0  0  0  0999 V2000
   -2.3722   -1.0772   -1.0369 C   0  0  0  0  0
   -3.2357   -0.4468   -0.1656 C   0  0  0  0  0
   -4.1698   -2.4309   -0.1777 C   0  0  0  0  0
    3.7223    0.0402    0.6668 C   0  0  0  0  0
    3.1317    0.5383   -0.4336 C   0  0  0  0  0
    1.0950    1.8641   -1.1329 C   0  0  0  0  0
   -3.1055    0.9781    0.2420 C   0  0  0  0  0
    3.6695    0.0628   -1.7663 C   0  0  0  0  0
   -1.9713    1.7949   -0.3192 C   0  0  0  0  0
    3.2596    0.2687    2.0867 C   0  0  0  0  0
    0.3805    2.4292    0.1333 C   0  0  0  0  0
    1.6764    2.0421    0.8821 C   0  0  0  0  0
   -4.6094    3.3616    2.2391 C   0  0  0  0  0
   -4.2673   -1.2214    0.3278 N   0  0  0  0  0
   -3.9488    1.5128    1.0726 N   0  0  0  0  0
    2.0679    1.3679   -0.3431 N   0  0  0  0  0
   -5.0282   -3.4482    0.0988 N   0  0  0  0  0
   -0.8560    1.7243    0.4679 N   0  0  0  0  0
    3.5964   -1.1832   -1.9599 O   0  0  0  0  0
    0.8618    1.7985   -2.3168 O   0  0  0  0  0
    4.1232    0.9722   -2.5164 O   0  0  0  0  0
   -2.1577    2.3988   -1.3634 O   0  0  0  0  0
   -3.6452    2.8572    1.3281 O   0  0  0  0  0
   -2.8612   -2.7067   -1.2530 S   0  0  0  0  0
    1.5168    0.8162    2.2069 S   0  0  0  0  0
  1 24  1  0  0  0
  2  7  1  0  0  0
  2 14  1  0  0  0
  3 17  1  0  0  0
  3 24  1  0  0  0
  5  8  1  0  0  0
  5 16  1  0  0  0
  6 16  1  0  0  0
  7  9  1  0  0  0
  8 19  1  0  0  0
  9 18  1  0  0  0
 10  4  1  0  0  0
 10 25  1  0  0  0
 11  6  1  0  0  0
 11 12  1  0  0  0
 11 18  1  0  0  0
 12 16  1  0  0  0
 12 25  1  0  0  0
 13 23  1  0  0  0
 15 23  1  0  0  0
  1  2  2  0  0  0
  3 14  2  0  0  0
  4  5  2  0  0  0
  6 20  2  0  0  0
  7 15  2  0  0  0
  8 21  2  0  0  0
  9 22  2  0  0  0
M  CHG  1  19  -1
M  END
> <rmsd>
0.330072433

$$$$
ZINC03830477


 25 27  0  0  0  0  0  0  0  0999 V2000
   -2.5785   -1.2428   -0.8983 C   0  0  0  0  0
   -3.3827   -0.4761   -0.0812 C   0  0  0  0  0
   -4.5034   -2.3582    0.0250 C   0  0  0  0  0
    3.5844   -0.6024    0.8054 C   0  0  0  0  0
    3.0515   -0.1244   -0.3326 C   0  0  0  0  0
    1.1562    1.3406   -1.1432 C   0  0  0  0  0
   -3.1186    0.9537    0.2336 C   0  0  0  0  0
    3.5494   -0.7367   -1.6244 C   0  0  0  0  0
   -1.9076    1.6192   -0.3656 C   0  0  0  0  0
    3.1369   -0.2368    2.2013 C   0  0  0  0  0
    0.4915    2.0544    0.0741 C   0  0  0  0  0
    1.7394    1.5958    0.8630 C   0  0  0  0  0
   -4.3987    3.5976    2.0509 C   0  0  0  0  0
   -4.4872   -1.1140    0.4488 N   0  0  0  0  0
   -3.9118    1.6206    1.0166 N   0  0  0  0  0
    2.0719    0.8072   -0.3102 N   0  0  0  0  0
   -5.4574   -3.2681    0.3567 N   0  0  0  0  0
   -0.8091    1.4948    0.4386 N   0  0  0  0  0
    3.3579   -1.9802   -1.7368 O   0  0  0  0  0
    0.9253    1.2190   -2.3231 O   0  0  0  0  0
    4.0932    0.0732   -2.4267 O   0  0  0  0  0
   -2.0283    2.1673   -1.4494 O   0  0  0  0  0
   -3.4818    2.9438    1.1872 O   0  0  0  0  0
   -3.2207   -2.8288   -1.0132 S   0  0  0  0  0
    1.4542    0.4817    2.2632 S   0  0  0  0  0
  1 24  1  0  0  0
  2  7  1  0  0  0
  2 14  1  0  0  0
  3 17  1  0  0  0
  3 24  1  0  0  0
  5  8  1  0  0  0
  5 16  1  0  0  0
  6 16  1  0  0  0
  7  9  1  0  0  0
  8 19  1  0  0  0
  9 18  1  0  0  0
 10  4  1  0  0  0
 10 25  1  0  0  0
 11  6  1  0  0  0
 11 12  1  0  0  0
 11 18  1  0  0  0
 12 16  1  0  0  0
 12 25  1  0  0  0
 13 23  1  0  0  0
 15 23  1  0  0  0
  1  2  2  0  0  0
  3 14  2  0  0  0
  4  5  2  0  0  0
  6 20  2  0  0  0
  7 15  2  0  0  0
  8 21  2  0  0  0
  9 22  2  0  0  0
M  CHG  1  19  -1
M  END
> <rmsd>
0.0802688375

$$$$
ZINC03830479


 25 27  0  0  0  0  0  0  0  0999 V2000
   -4.6771   -1.0711    0.5563 C   0  0  0  0  0
   -3.5575   -0.4681    0.0226 C   0  0  0  0  0
   -3.2856   -2.4741   -0.8211 C   0  0  0  0  0
    4.3428    0.3487    0.4861 C   0  0  0  0  0
    3.4186    0.1721   -0.4744 C   0  0  0  0  0
    1.1089    0.9593   -1.1375 C   0  0  0  0  0
   -3.1913    0.9542    0.2599 C   0  0  0  0  0
    3.8620   -0.5805   -1.7107 C   0  0  0  0  0
   -1.9414    1.5002   -0.3788 C   0  0  0  0  0
    4.1601    1.1828    1.7323 C   0  0  0  0  0
    0.4856    1.7881    0.0277 C   0  0  0  0  0
    1.6330    1.2075    0.8858 C   0  0  0  0  0
   -4.2691    3.7741    1.9388 C   0  0  0  0  0
   -2.7581   -1.2713   -0.7671 N   0  0  0  0  0
   -3.9299    1.7158    1.0094 N   0  0  0  0  0
    2.1802    0.7029   -0.3611 N   0  0  0  0  0
   -2.7520   -3.5142   -1.5151 N   0  0  0  0  0
   -0.8470    1.3418    0.4263 N   0  0  0  0  0
    4.8169   -0.0518   -2.3463 O   0  0  0  0  0
    0.8232    0.7012   -2.2829 O   0  0  0  0  0
    3.2209   -1.6422   -1.9503 O   0  0  0  0  0
   -2.0318    1.9974   -1.4897 O   0  0  0  0  0
   -3.4069    3.0126    1.1075 O   0  0  0  0  0
   -4.7429   -2.7095    0.0540 S   0  0  0  0  0
    2.7962    2.3971    1.6038 S   0  0  0  0  0
  1 24  1  0  0  0
  2  7  1  0  0  0
  2 14  1  0  0  0
  3 17  1  0  0  0
  3 24  1  0  0  0
  5  8  1  0  0  0
  5 16  1  0  0  0
  6 16  1  0  0  0
  7  9  1  0  0  0
  8 19  1  0  0  0
  9 18  1  0  0  0
 10  4  1  0  0  0
 10 25  1  0  0  0
 11  6  1  0  0  0
 11 12  1  0  0  0
 11 18  1  0  0  0
 12 16  1  0  0  0
 12 25  1  0  0  0
 13 23  1  0  0  0
 15 23  1  0  0  0
  1  2  2  0  0  0
  3 14  2  0  0  0
  4  5  2  0  0  0
  6 20  2  0  0  0
  7 15  2  0  0  0
  8 21  2  0  0  0
  9 22  2  0  0  0
M  CHG  1  19  -1
M  END
> <rmsd>
0.195457309

$$$$
ZINC03830479


 25 27  0  0  0  0  0  0  0  0999 V2000
   -2.7945   -1.3296   -0.7805 C   0  0  0  0  0
   -3.5411   -0.4725    0.0007 C   0  0  0  0  0
   -4.7872   -2.2666    0.1960 C   0  0  0  0  0
    4.3560    0.3569    0.4950 C   0  0  0  0  0
    3.4354    0.1846   -0.4696 C   0  0  0  0  0
    1.1262    0.9714   -1.1352 C   0  0  0  0  0
   -3.1785    0.9490    0.2481 C   0  0  0  0  0
    3.8842   -0.5594   -1.7092 C   0  0  0  0  0
   -1.9276    1.5015   -0.3830 C   0  0  0  0  0
    4.1676    1.1827    1.7459 C   0  0  0  0  0
    0.4975    1.7916    0.0332 C   0  0  0  0  0
    1.6433    1.2078    0.8913 C   0  0  0  0  0
   -4.2672    3.7561    1.9413 C   0  0  0  0  0
   -4.6842   -1.0080    0.5613 N   0  0  0  0  0
   -3.9210    1.7044    1.0000 N   0  0  0  0  0
    2.1955    0.7121   -0.3570 N   0  0  0  0  0
   -5.7997   -3.0926    0.5711 N   0  0  0  0  0
   -0.8355    1.3402    0.4246 N   0  0  0  0  0
    4.8401   -0.0248   -2.3383 O   0  0  0  0  0
    0.8447    0.7200   -2.2832 O   0  0  0  0  0
    3.2460   -1.6207   -1.9576 O   0  0  0  0  0
   -2.0154    2.0055   -1.4910 O   0  0  0  0  0
   -3.4008    3.0016    1.1080 O   0  0  0  0  0
   -3.5441   -2.8716   -0.8205 S   0  0  0  0  0
    2.8017    2.3952    1.6206 S   0  0  0  0  0
  1 24  1  0  0  0
  2  7  1  0  0  0
  2 14  1  0  0  0
  3 17  1  0  0  0
  3 24  1  0  0  0
  5  8  1  0  0  0
  5 16  1  0  0  0
  6 16  1  0  0  0
  7  9  1  0  0  0
  8 19  1  0  0  0
  9 18  1  0  0  0
 10  4  1  0  0  0
 10 25  1  0  0  0
 11  6  1  0  0  0
 11 12  1  0  0  0
 11 18  1  0  0  0
 12 16  1  0  0  0
 12 25  1  0  0  0
 13 23  1  0  0  0
 15 23  1  0  0  0
  1  2  2  0  0  0
  3 14  2  0  0  0
  4  5  2  0  0  0
  6 20  2  0  0  0
  7 15  2  0  0  0
  8 21  2  0  0  0
  9 22  2  0  0  0
M  CHG  1  19  -1
M  END
> <rmsd>
0.221681014

$$$$
ZINC84845375


 27 29  0  0  0  0  0  0  0  0999 V2000
    0.8399    2.4643   -2.6174 C   0  0  0  0  0
   -4.4323   -5.2466   -0.1638 C   0  0  0  0  0
   -2.7241   -5.2114   -1.8719 C   0  0  0  0  0
   -3.5528   -2.5640    0.5420 C   0  0  0  0  0
   -2.9156   -2.3100   -1.7745 C   0  0  0  0  0
    1.8186    1.4709   -2.6472 C   0  0  0  0  0
   -4.6014   -6.6171   -0.3612 C   0  0  0  0  0
   -2.8932   -6.5818   -2.0694 C   0  0  0  0  0
   -0.1294    2.4586   -1.6143 C   0  0  0  0  0
   -3.3842   -1.1934    0.7388 C   0  0  0  0  0
   -2.7470   -0.9394   -1.5779 C   0  0  0  0  0
    0.8587    0.4661   -0.6708 C   0  0  0  0  0
   -3.4937   -4.5437   -0.9193 C   0  0  0  0  0
   -3.3185   -3.1223   -0.7146 C   0  0  0  0  0
    1.8280    0.4718   -1.6739 C   0  0  0  0  0
   -3.8318   -7.2846   -1.3139 C   0  0  0  0  0
   -0.1200    1.4595   -0.6410 C   0  0  0  0  0
   -2.9814   -0.3811   -0.3212 C   0  0  0  0  0
    2.8607   -0.5766   -1.7067 C   0  0  0  0  0
   -4.0128   -8.7498   -1.5252 C   0  0  0  0  0
   -1.1185    1.4544    0.3940 N   0  0  0  0  0
    2.8478   -1.4877   -0.7966 O   0  0  0  0  0
    3.7430   -0.5482   -2.6443 O   0  0  0  0  0
   -3.5950    1.7236    1.0642 O   0  0  0  0  0
   -2.9684    2.0162   -1.3486 O   0  0  0  0  0
   -3.4107   -9.4601   -0.4499 O   0  0  0  0  0
   -2.7720    1.3348   -0.0749 S   0  0  0  0  0
  1  6  1  0  0  0
  2 13  1  0  0  0
  3  8  1  0  0  0
  4 14  1  0  0  0
  5 11  1  0  0  0
  7 16  1  0  0  0
  9 17  1  0  0  0
 10 18  1  0  0  0
 12 15  1  0  0  0
 13 14  1  0  0  0
 15 19  1  0  0  0
 17 21  1  0  0  0
 19 22  1  0  0  0
 20 16  1  0  0  0
 20 26  1  0  0  0
 27 18  1  0  0  0
 27 21  1  0  0  0
  1  9  2  0  0  0
  2  7  2  0  0  0
  3 13  2  0  0  0
  4 10  2  0  0  0
  5 14  2  0  0  0
  6 15  2  0  0  0
  8 16  2  0  0  0
 11 18  2  0  0  0
 12 17  2  0  0  0
 19 23  2  0  0  0
 27 24  2  0  0  0
 27 25  2  0  0  0
M  CHG  1  22  -1
M  END
> <rmsd>
0.519765139

$$$$
ZINC36293986


 27 29  0  0  0  0  0  0  0  0999 V2000
    0.8393    2.4641   -2.6176 C   0  0  0  0  0
   -3.2708   -5.4318    0.1345 C   0  0  0  0  0
   -3.8756   -5.0275   -2.1693 C   0  0  0  0  0
   -3.5515   -2.5644    0.5416 C   0  0  0  0  0
   -2.9138   -2.3104   -1.7747 C   0  0  0  0  0
    1.8175    1.4701   -2.6481 C   0  0  0  0  0
   -0.1290    2.4591   -1.6136 C   0  0  0  0  0
   -3.4376   -6.8026   -0.0623 C   0  0  0  0  0
   -4.0424   -6.3983   -2.3661 C   0  0  0  0  0
   -3.3831   -1.1937    0.7383 C   0  0  0  0  0
   -2.7454   -0.9398   -1.5781 C   0  0  0  0  0
    0.8587    0.4660   -0.6707 C   0  0  0  0  0
   -3.4898   -4.5442   -0.9189 C   0  0  0  0  0
   -3.3167   -3.1227   -0.7149 C   0  0  0  0  0
    1.8272    0.4711   -1.6746 C   0  0  0  0  0
   -0.1193    1.4601   -0.6402 C   0  0  0  0  0
   -3.8233   -7.2859   -1.3126 C   0  0  0  0  0
   -2.9801   -0.3815   -0.3215 C   0  0  0  0  0
    2.8595   -0.5777   -1.7075 C   0  0  0  0  0
   -3.7457   -9.4742   -0.3849 C   0  0  0  0  0
   -1.1182    1.4547    0.3945 N   0  0  0  0  0
    2.8468   -1.4885   -0.7973 O   0  0  0  0  0
    3.7415   -0.5497   -2.6455 O   0  0  0  0  0
   -3.5950    1.7231    1.0635 O   0  0  0  0  0
   -2.9675    2.0160   -1.3488 O   0  0  0  0  0
   -3.9860   -8.6233   -1.5046 O   0  0  0  0  0
   -2.7715    1.3342   -0.0752 S   0  0  0  0  0
  1  6  1  0  0  0
  2 13  1  0  0  0
  3  9  1  0  0  0
  4 14  1  0  0  0
  5 11  1  0  0  0
  7 16  1  0  0  0
  8 17  1  0  0  0
 10 18  1  0  0  0
 12 15  1  0  0  0
 13 14  1  0  0  0
 15 19  1  0  0  0
 16 21  1  0  0  0
 17 26  1  0  0  0
 19 22  1  0  0  0
 20 26  1  0  0  0
 27 18  1  0  0  0
 27 21  1  0  0  0
  1  7  2  0  0  0
  2  8  2  0  0  0
  3 13  2  0  0  0
  4 10  2  0  0  0
  5 14  2  0  0  0
  6 15  2  0  0  0
  9 17  2  0  0  0
 11 18  2  0  0  0
 12 16  2  0  0  0
 19 23  2  0  0  0
 27 24  2  0  0  0
 27 25  2  0  0  0
M  CHG  1  22  -1
M  END
> <rmsd>
0.520358562

$$$$
ZINC58118486


 22 23  0  0  0  0  0  0  0  0999 V2000
    0.6997    2.4874   -2.7088 C   0  0  0  0  0
    1.5430    1.3959   -2.9166 C   0  0  0  0  0
   -3.2287   -2.6329    0.5745 C   0  0  0  0  0
   -0.1980    2.4818   -1.6412 C   0  0  0  0  0
   -3.6158   -3.0906   -0.6850 C   0  0  0  0  0
   -3.5383   -0.8286   -1.5307 C   0  0  0  0  0
    1.4886    0.2990   -2.0568 C   0  0  0  0  0
   -2.9965   -1.2732    0.7814 C   0  0  0  0  0
    0.5909    0.2934   -0.9892 C   0  0  0  0  0
   -0.2525    1.3849   -0.7814 C   0  0  0  0  0
   -3.1514   -0.3710   -0.2711 C   0  0  0  0  0
   -3.7706   -2.1885   -1.7376 C   0  0  0  0  0
    2.3891   -0.8431   -2.2990 C   0  0  0  0  0
   -2.5836   -0.8159    2.1423 C   0  0  0  0  0
    0.5329   -0.8842   -0.0668 C   0  0  0  0  0
   -1.1807    1.4001    0.3062 N   0  0  0  0  0
    3.5482   -0.8444   -1.7405 O   0  0  0  0  0
    1.9840   -1.7977   -3.0606 O   0  0  0  0  0
   -3.6023    1.7554    1.1433 O   0  0  0  0  0
   -3.1280    2.0227   -1.3067 O   0  0  0  0  0
   -2.8661    1.3608   -0.0432 S   0  0  0  0  0
   -4.2949   -2.8089   -3.4440 Br  0  0  0  0  0
  1  2  1  0  0  0
  3  8  1  0  0  0
  4 10  1  0  0  0
  5 12  1  0  0  0
  6 11  1  0  0  0
  7  9  1  0  0  0
  7 13  1  0  0  0
 10 16  1  0  0  0
 12 22  1  0  0  0
 13 17  1  0  0  0
 14  8  1  0  0  0
 15  9  1  0  0  0
 21 11  1  0  0  0
 21 16  1  0  0  0
  1  4  2  0  0  0
  2  7  2  0  0  0
  3  5  2  0  0  0
  6 12  2  0  0  0
  8 11  2  0  0  0
  9 10  2  0  0  0
 13 18  2  0  0  0
 21 19  2  0  0  0
 21 20  2  0  0  0
M  CHG  1  17  -1
M  END
> <rmsd>
0.388804644

$$$$
ZINC58118486


 22 23  0  0  0  0  0  0  0  0999 V2000
    1.0281    2.6335   -2.3588 C   0  0  0  0  0
    1.9399    1.5828   -2.4624 C   0  0  0  0  0
   -2.9782   -2.6473    0.5555 C   0  0  0  0  0
    0.0234    2.5922   -1.3921 C   0  0  0  0  0
   -3.2071   -3.1328   -0.7319 C   0  0  0  0  0
   -3.1481   -0.8762   -1.5933 C   0  0  0  0  0
    1.8467    0.4910   -1.5993 C   0  0  0  0  0
   -2.8344   -1.2763    0.7686 C   0  0  0  0  0
    0.8420    0.4497   -0.6326 C   0  0  0  0  0
   -0.0697    1.5004   -0.5291 C   0  0  0  0  0
   -2.9194   -0.3908   -0.3058 C   0  0  0  0  0
   -3.2920   -2.2473   -1.8063 C   0  0  0  0  0
    2.8213   -0.6076   -1.7305 C   0  0  0  0  0
   -2.5906   -0.7892    2.1595 C   0  0  0  0  0
    0.7426   -0.7222    0.2934 C   0  0  0  0  0
   -1.1079    1.4786    0.4541 N   0  0  0  0  0
    3.9133   -0.5482   -1.0526 O   0  0  0  0  0
    2.5453   -1.5866   -2.5184 O   0  0  0  0  0
   -3.6188    1.7218    1.0259 O   0  0  0  0  0
   -2.9002    1.9934   -1.3634 O   0  0  0  0  0
   -2.7428    1.3546   -0.0710 S   0  0  0  0  0
   -3.6020   -2.9054   -3.5506 Br  0  0  0  0  0
  1  2  1  0  0  0
  3  8  1  0  0  0
  4 10  1  0  0  0
  5 12  1  0  0  0
  6 11  1  0  0  0
  7  9  1  0  0  0
  7 13  1  0  0  0
 10 16  1  0  0  0
 12 22  1  0  0  0
 13 17  1  0  0  0
 14  8  1  0  0  0
 15  9  1  0  0  0
 21 11  1  0  0  0
 21 16  1  0  0  0
  1  4  2  0  0  0
  2  7  2  0  0  0
  3  5  2  0  0  0
  6 12  2  0  0  0
  8 11  2  0  0  0
  9 10  2  0  0  0
 13 18  2  0  0  0
 21 19  2  0  0  0
 21 20  2  0  0  0
M  CHG  1  17  -1
M  END
> <rmsd>
0.561797798

$$$$
ZINC58118486


 22 23  0  0  0  0  0  0  0  0999 V2000
    0.7205    2.5156   -2.6826 C   0  0  0  0  0
    1.5603    1.4233   -2.9003 C   0  0  0  0  0
   -3.2633   -2.2989   -1.7345 C   0  0  0  0  0
   -0.1824    2.5001   -1.6196 C   0  0  0  0  0
   -3.6238   -3.0862   -0.6411 C   0  0  0  0  0
   -3.5150   -1.1446    0.7928 C   0  0  0  0  0
    1.4969    0.3156   -2.0550 C   0  0  0  0  0
   -3.0287   -0.9344   -1.5644 C   0  0  0  0  0
    0.5940    0.3001   -0.9920 C   0  0  0  0  0
   -0.2458    1.3925   -0.7743 C   0  0  0  0  0
   -3.1546   -0.3573   -0.3008 C   0  0  0  0  0
   -3.7497   -2.5091    0.6226 C   0  0  0  0  0
    2.3938   -0.8272   -2.3076 C   0  0  0  0  0
   -2.6439   -0.1196   -2.7560 C   0  0  0  0  0
    0.5265   -0.8890   -0.0851 C   0  0  0  0  0
   -1.1793    1.3978    0.3090 N   0  0  0  0  0
    3.5501   -0.8406   -1.7435 O   0  0  0  0  0
    1.9884   -1.7702   -3.0833 O   0  0  0  0  0
   -3.6034    1.7527    1.1387 O   0  0  0  0  0
   -3.1159    2.0494   -1.3053 O   0  0  0  0  0
   -2.8631    1.3702   -0.0492 S   0  0  0  0  0
   -4.2380   -3.5762    2.1038 Br  0  0  0  0  0
  1  2  1  0  0  0
  3  8  1  0  0  0
  4 10  1  0  0  0
  5 12  1  0  0  0
  6 11  1  0  0  0
  7  9  1  0  0  0
  7 13  1  0  0  0
 10 16  1  0  0  0
 12 22  1  0  0  0
 13 17  1  0  0  0
 14  8  1  0  0  0
 15  9  1  0  0  0
 21 11  1  0  0  0
 21 16  1  0  0  0
  1  4  2  0  0  0
  2  7  2  0  0  0
  3  5  2  0  0  0
  6 12  2  0  0  0
  8 11  2  0  0  0
  9 10  2  0  0  0
 13 18  2  0  0  0
 21 19  2  0  0  0
 21 20  2  0  0  0
M  CHG  1  17  -1
M  END
> <rmsd>
0.382247508

$$$$
ZINC58118486


 22 23  0  0  0  0  0  0  0  0999 V2000
    1.0486    2.6552   -2.3296 C   0  0  0  0  0
    1.9568    1.6023   -2.4415 C   0  0  0  0  0
   -2.7853   -2.3355   -1.7445 C   0  0  0  0  0
    0.0388    2.6060   -1.3687 C   0  0  0  0  0
   -3.2237   -3.1295   -0.6849 C   0  0  0  0  0
   -3.3595   -1.1724    0.7253 C   0  0  0  0  0
    1.8550    0.5004   -1.5925 C   0  0  0  0  0
   -2.6340   -0.9599   -1.5693 C   0  0  0  0  0
    0.8451    0.4511   -0.6316 C   0  0  0  0  0
   -0.0630    1.5040   -0.5197 C   0  0  0  0  0
   -2.9212   -0.3784   -0.3344 C   0  0  0  0  0
   -3.5108   -2.5480    0.5501 C   0  0  0  0  0
    2.8259   -0.6004   -1.7322 C   0  0  0  0  0
   -2.1623   -0.1382   -2.7243 C   0  0  0  0  0
    0.7364   -0.7318    0.2794 C   0  0  0  0  0
   -1.1063    1.4743    0.4578 N   0  0  0  0  0
    3.9146   -0.5536   -1.0481 O   0  0  0  0  0
    2.5502   -1.5685   -2.5336 O   0  0  0  0  0
   -3.6192    1.7203    1.0198 O   0  0  0  0  0
   -2.8873    2.0184   -1.3624 O   0  0  0  0  0
   -2.7390    1.3631   -0.0771 S   0  0  0  0  0
   -4.1047   -3.6241    1.9855 Br  0  0  0  0  0
  1  2  1  0  0  0
  3  8  1  0  0  0
  4 10  1  0  0  0
  5 12  1  0  0  0
  6 11  1  0  0  0
  7  9  1  0  0  0
  7 13  1  0  0  0
 10 16  1  0  0  0
 12 22  1  0  0  0
 13 17  1  0  0  0
 14  8  1  0  0  0
 15  9  1  0  0  0
 21 11  1  0  0  0
 21 16  1  0  0  0
  1  4  2  0  0  0
  2  7  2  0  0  0
  3  5  2  0  0  0
  6 12  2  0  0  0
  8 11  2  0  0  0
  9 10  2  0  0  0
 13 18  2  0  0  0
 21 19  2  0  0  0
 21 20  2  0  0  0
M  CHG  1  17  -1
M  END
> <rmsd>
0.553299367

$$$$
ZINC41091681


 22 23  0  0  0  0  0  0  0  0999 V2000
    0.8787    2.5116   -2.5626 C   0  0  0  0  0
    1.8473    1.5089   -2.6070 C   0  0  0  0  0
   -2.9096   -2.3120   -1.7700 C   0  0  0  0  0
   -3.5501   -2.5637    0.5459 C   0  0  0  0  0
   -0.1000    2.4925   -1.5688 C   0  0  0  0  0
   -2.7426   -0.9410   -1.5748 C   0  0  0  0  0
   -3.3829   -1.1927    0.7412 C   0  0  0  0  0
    0.8584    0.4677   -0.6641 C   0  0  0  0  0
    1.8370    0.4869   -1.6578 C   0  0  0  0  0
   -3.3134   -3.1234   -0.7096 C   0  0  0  0  0
   -0.1102    1.4705   -0.6196 C   0  0  0  0  0
   -2.9793   -0.3814   -0.3193 C   0  0  0  0  0
    2.8594   -0.5711   -1.7055 C   0  0  0  0  0
   -3.4941   -4.5888   -0.9186 C   0  0  0  0  0
   -4.9170   -4.9293   -1.3500 C   0  0  0  0  0
   -1.1123    1.4505    0.3970 N   0  0  0  0  0
    2.8283   -1.5032   -0.8174 O   0  0  0  0  0
    3.7513   -0.5296   -2.6335 O   0  0  0  0  0
   -3.5995    1.7255    1.0601 O   0  0  0  0  0
   -2.9600    2.0147   -1.3496 O   0  0  0  0  0
   -2.7677    1.3582   -0.0708 S   0  0  0  0  0
   -5.1153   -6.8538   -1.5650 Br  0  0  0  0  0
  1  2  1  0  0  0
  3 10  1  0  0  0
  4  7  1  0  0  0
  5 11  1  0  0  0
  6 12  1  0  0  0
  8  9  1  0  0  0
  9 13  1  0  0  0
 11 16  1  0  0  0
 13 17  1  0  0  0
 14 10  1  0  0  0
 14 15  1  0  0  0
 15 22  1  0  0  0
 21 12  1  0  0  0
 21 16  1  0  0  0
  1  5  2  0  0  0
  2  9  2  0  0  0
  3  6  2  0  0  0
  4 10  2  0  0  0
  7 12  2  0  0  0
  8 11  2  0  0  0
 13 18  2  0  0  0
 21 19  2  0  0  0
 21 20  2  0  0  0
M  CHG  1  17  -1
M  END
> <rmsd>
0.519184887

$$$$
ZINC58119336


 22 23  0  0  0  0  0  0  0  0999 V2000
    1.0172    2.6224   -2.3732 C   0  0  0  0  0
    1.9308    1.5729   -2.4725 C   0  0  0  0  0
   -3.1804   -2.2405   -1.8296 C   0  0  0  0  0
    0.0151    2.5852   -1.4036 C   0  0  0  0  0
   -3.0414   -0.8723   -1.5961 C   0  0  0  0  0
   -3.0742   -2.6572    0.5477 C   0  0  0  0  0
    1.8421    0.4865   -1.6023 C   0  0  0  0  0
   -3.1969   -3.1328   -0.7577 C   0  0  0  0  0
    0.8401    0.4493   -0.6327 C   0  0  0  0  0
   -0.0735    1.4987   -0.5334 C   0  0  0  0  0
   -2.9187   -0.3966   -0.2905 C   0  0  0  0  0
   -2.9350   -1.2891    0.7813 C   0  0  0  0  0
    2.8186   -0.6111   -1.7290 C   0  0  0  0  0
   -3.3440   -4.5954   -1.0088 C   0  0  0  0  0
    0.7455   -0.7170    0.3010 C   0  0  0  0  0
   -1.1090    1.4812    0.4527 N   0  0  0  0  0
    3.9122   -0.5451   -1.0545 O   0  0  0  0  0
    2.5425   -1.5956   -2.5100 O   0  0  0  0  0
   -3.6189    1.7229    1.0296 O   0  0  0  0  0
   -2.9072    1.9807   -1.3633 O   0  0  0  0  0
   -2.7451    1.3505   -0.0673 S   0  0  0  0  0
   -2.7713   -0.7101    2.5817 Br  0  0  0  0  0
  1  2  1  0  0  0
  3  8  1  0  0  0
  4 10  1  0  0  0
  5 11  1  0  0  0
  6 12  1  0  0  0
  7  9  1  0  0  0
  7 13  1  0  0  0
 10 16  1  0  0  0
 12 22  1  0  0  0
 13 17  1  0  0  0
 14  8  1  0  0  0
 15  9  1  0  0  0
 21 11  1  0  0  0
 21 16  1  0  0  0
  1  4  2  0  0  0
  2  7  2  0  0  0
  3  5  2  0  0  0
  6  8  2  0  0  0
  9 10  2  0  0  0
 11 12  2  0  0  0
 13 18  2  0  0  0
 21 19  2  0  0  0
 21 20  2  0  0  0
M  CHG  1  17  -1
M  END
> <rmsd>
0.566644788

$$$$
ZINC58119336


 22 23  0  0  0  0  0  0  0  0999 V2000
    0.6886    2.4730   -2.7216 C   0  0  0  0  0
    1.5339    1.3820   -2.9243 C   0  0  0  0  0
   -3.6626   -2.1879   -1.7707 C   0  0  0  0  0
   -0.2063    2.4725   -1.6518 C   0  0  0  0  0
   -3.4326   -0.8310   -1.5437 C   0  0  0  0  0
   -3.3273   -2.6380    0.5791 C   0  0  0  0  0
    1.4840    0.2907   -2.0571 C   0  0  0  0  0
   -3.6101   -3.0913   -0.7093 C   0  0  0  0  0
    0.5890    0.2902   -0.9872 C   0  0  0  0  0
   -0.2562    1.3812   -0.7845 C   0  0  0  0  0
   -3.1499   -0.3776   -0.2552 C   0  0  0  0  0
   -3.0971   -1.2811    0.8062 C   0  0  0  0  0
    2.3865   -0.8511   -2.2940 C   0  0  0  0  0
   -3.8546   -4.5420   -0.9535 C   0  0  0  0  0
    0.5360   -0.8814   -0.0568 C   0  0  0  0  0
   -1.1817    1.4017    0.3054 N   0  0  0  0  0
    3.5470   -0.8461   -1.7385 O   0  0  0  0  0
    1.9816   -1.8116   -3.0482 O   0  0  0  0  0
   -3.6019    1.7572    1.1462 O   0  0  0  0  0
   -3.1344    2.0092   -1.3068 O   0  0  0  0  0
   -2.8679    1.3563   -0.0395 S   0  0  0  0  0
   -2.7163   -0.7324    2.5831 Br  0  0  0  0  0
  1  2  1  0  0  0
  3  8  1  0  0  0
  4 10  1  0  0  0
  5 11  1  0  0  0
  6 12  1  0  0  0
  7  9  1  0  0  0
  7 13  1  0  0  0
 10 16  1  0  0  0
 12 22  1  0  0  0
 13 17  1  0  0  0
 14  8  1  0  0  0
 15  9  1  0  0  0
 21 11  1  0  0  0
 21 16  1  0  0  0
  1  4  2  0  0  0
  2  7  2  0  0  0
  3  5  2  0  0  0
  6  8  2  0  0  0
  9 10  2  0  0  0
 11 12  2  0  0  0
 13 18  2  0  0  0
 21 19  2  0  0  0
 21 20  2  0  0  0
M  CHG  1  17  -1
M  END
> <rmsd>
0.392649293

$$$$
ZINC58119336


 22 23  0  0  0  0  0  0  0  0999 V2000
    1.0594    2.6663   -2.3160 C   0  0  0  0  0
    1.9664    1.6128   -2.4316 C   0  0  0  0  0
   -3.5270   -2.5248    0.5678 C   0  0  0  0  0
    0.0472    2.6131   -1.3578 C   0  0  0  0  0
   -3.3639   -1.1483    0.7235 C   0  0  0  0  0
   -2.8008   -2.3510   -1.7300 C   0  0  0  0  0
    1.8610    0.5062   -1.5890 C   0  0  0  0  0
   -3.2454   -3.1261   -0.6589 C   0  0  0  0  0
    0.8488    0.4530   -0.6309 C   0  0  0  0  0
   -0.0582    1.5065   -0.5152 C   0  0  0  0  0
   -2.9194   -0.3730   -0.3476 C   0  0  0  0  0
   -2.6378   -0.9745   -1.5743 C   0  0  0  0  0
    2.8308   -0.5951   -1.7326 C   0  0  0  0  0
   -3.4216   -4.5975   -0.8246 C   0  0  0  0  0
    0.7361   -0.7349    0.2731 C   0  0  0  0  0
   -1.1040    1.4727    0.4595 N   0  0  0  0  0
    3.9178   -0.5537   -1.0456 O   0  0  0  0  0
    2.5557   -1.5583   -2.5401 O   0  0  0  0  0
   -3.6179    1.7190    1.0167 O   0  0  0  0  0
   -2.8797    2.0296   -1.3619 O   0  0  0  0  0
   -2.7355    1.3668   -0.0801 S   0  0  0  0  0
   -2.0312    0.0208   -3.0727 Br  0  0  0  0  0
  1  2  1  0  0  0
  3  8  1  0  0  0
  4 10  1  0  0  0
  5 11  1  0  0  0
  6 12  1  0  0  0
  7  9  1  0  0  0
  7 13  1  0  0  0
 10 16  1  0  0  0
 12 22  1  0  0  0
 13 17  1  0  0  0
 14  8  1  0  0  0
 15  9  1  0  0  0
 21 11  1  0  0  0
 21 16  1  0  0  0
  1  4  2  0  0  0
  2  7  2  0  0  0
  3  5  2  0  0  0
  6  8  2  0  0  0
  9 10  2  0  0  0
 11 12  2  0  0  0
 13 18  2  0  0  0
 21 19  2  0  0  0
 21 20  2  0  0  0
M  CHG  1  17  -1
M  END
> <rmsd>
0.545678854

$$$$
ZINC58119336


 22 23  0  0  0  0  0  0  0  0999 V2000
    0.7319    2.5297   -2.6701 C   0  0  0  0  0
    1.5705    1.4374   -2.8924 C   0  0  0  0  0
   -3.7612   -2.4858    0.6398 C   0  0  0  0  0
   -0.1736    2.5093   -1.6093 C   0  0  0  0  0
   -3.5174   -1.1207    0.7902 C   0  0  0  0  0
   -3.2771   -2.3123   -1.7208 C   0  0  0  0  0
    1.5033    0.3247   -2.0539 C   0  0  0  0  0
   -3.6410   -3.0815   -0.6156 C   0  0  0  0  0
    0.5977    0.3042   -0.9932 C   0  0  0  0  0
   -0.2408    1.3966   -0.7709 C   0  0  0  0  0
   -3.1535   -0.3513   -0.3149 C   0  0  0  0  0
   -3.0333   -0.9471   -1.5705 C   0  0  0  0  0
    2.3989   -0.8180   -2.3112 C   0  0  0  0  0
   -3.9034   -4.5407   -0.7755 C   0  0  0  0  0
    0.5261   -0.8902   -0.0937 C   0  0  0  0  0
   -1.1769    1.3969    0.3101 N   0  0  0  0  0
    3.5538   -0.8367   -1.7445 O   0  0  0  0  0
    1.9939   -1.7556   -3.0937 O   0  0  0  0  0
   -3.6024    1.7507    1.1362 O   0  0  0  0  0
   -3.1085    2.0614   -1.3048 O   0  0  0  0  0
   -2.8599    1.3742   -0.0522 S   0  0  0  0  0
   -2.5437    0.0408   -3.1158 Br  0  0  0  0  0
  1  2  1  0  0  0
  3  8  1  0  0  0
  4 10  1  0  0  0
  5 11  1  0  0  0
  6 12  1  0  0  0
  7  9  1  0  0  0
  7 13  1  0  0  0
 10 16  1  0  0  0
 12 22  1  0  0  0
 13 17  1  0  0  0
 14  8  1  0  0  0
 15  9  1  0  0  0
 21 11  1  0  0  0
 21 16  1  0  0  0
  1  4  2  0  0  0
  2  7  2  0  0  0
  3  5  2  0  0  0
  6  8  2  0  0  0
  9 10  2  0  0  0
 11 12  2  0  0  0
 13 18  2  0  0  0
 21 19  2  0  0  0
 21 20  2  0  0  0
M  CHG  1  17  -1
M  END
> <rmsd>
0.376542062

$$$$
ZINC20709066


 28 31  0  0  0  0  0  0  0  0999 V2000
   -3.8153   -2.2076   -0.1173 C   0  0  0  0  0
    3.3360    0.6235    0.5345 C   0  0  0  0  0
   -4.2886   -1.0389    0.4792 C   0  0  0  0  0
    2.7164    1.0435    1.7049 C   0  0  0  0  0
   -1.9301   -0.9884   -1.0099 C   0  0  0  0  0
   -2.4034    0.1803   -0.4135 C   0  0  0  0  0
    1.2601    0.9698   -0.6915 C   0  0  0  0  0
    0.6196    1.3605    0.4988 C   0  0  0  0  0
   -2.6360   -2.1824   -0.8618 C   0  0  0  0  0
    2.6123    0.5829   -0.6554 C   0  0  0  0  0
   -3.5827    0.1549    0.3311 C   0  0  0  0  0
    1.3701    1.4071    1.6858 C   0  0  0  0  0
    0.5007    2.9135   -3.2828 C   0  0  0  0  0
    1.1490    1.7631   -3.0759 C   0  0  0  0  0
   -0.6886    3.0344   -2.3925 C   0  0  0  0  0
    0.5027    0.9282   -2.0017 C   0  0  0  0  0
   -1.6213    1.4738   -0.5866 C   0  0  0  0  0
   -0.9011    1.5749   -1.9379 C   0  0  0  0  0
    0.8246    3.1898    3.1624 C   0  0  0  0  0
   -0.7244    1.6961    0.5360 N   0  0  0  0  0
   -2.1551   -3.3720   -1.4702 N   0  0  0  0  0
    3.2855    0.0467   -1.7909 N   0  0  0  0  0
   -2.8063   -4.4348   -1.3255 O   0  0  0  0  0
    3.2722   -1.1928   -1.9702 O   0  0  0  0  0
   -1.0926   -3.3279   -2.1360 O   0  0  0  0  0
    3.8683    0.8320   -2.5732 O   0  0  0  0  0
   -4.0601    1.2878    0.9191 O   0  0  0  0  0
    0.7854    1.7991    2.8568 O   0  0  0  0  0
  1  9  1  0  0  0
  2 10  1  0  0  0
  3 11  1  0  0  0
  4 12  1  0  0  0
  5  6  1  0  0  0
  7  8  1  0  0  0
  8 20  1  0  0  0
  9 21  1  0  0  0
 10 22  1  0  0  0
 11 27  1  0  0  0
 12 28  1  0  0  0
 15 13  1  0  0  0
 15 18  1  0  0  0
 16  7  1  0  0  0
 16 14  1  0  0  0
 16 18  1  0  0  0
 17  6  1  0  0  0
 17 18  1  0  0  0
 17 20  1  0  0  0
 19 28  1  0  0  0
 21 23  1  0  0  0
 22 24  1  0  0  0
  1  3  2  0  0  0
  2  4  2  0  0  0
  5  9  2  0  0  0
  6 11  2  0  0  0
  7 10  2  0  0  0
  8 12  2  0  0  0
 13 14  2  0  0  0
 21 25  2  0  0  0
 22 26  2  0  0  0
M  CHG  4  21   1  22   1  23  -1  24  -1
M  END
> <rmsd>
0.601241529

$$$$
ZINC09075662


 27 29  0  0  0  0  0  0  0  0999 V2000
   -4.3649   -2.2789    0.9433 C   0  0  0  0  0
   -5.3081   -1.5283    0.2416 C   0  0  0  0  0
   -3.0813   -2.4474    0.4240 C   0  0  0  0  0
    2.6265    0.5180    1.5349 C   0  0  0  0  0
   -4.9678   -0.9462   -0.9795 C   0  0  0  0  0
   -2.7410   -1.8653   -0.7972 C   0  0  0  0  0
    1.3161    0.9957    1.5297 C   0  0  0  0  0
    3.1994    0.0403    0.3561 C   0  0  0  0  0
    1.1513    0.5177   -0.8329 C   0  0  0  0  0
   -3.6843   -1.1146   -1.4989 C   0  0  0  0  0
    0.5784    0.9955    0.3459 C   0  0  0  0  0
    2.4618    0.0401   -0.8277 C   0  0  0  0  0
   -3.3453    0.7768   -3.0744 C   0  0  0  0  0
   -3.3650    2.4605    0.4907 C   0  0  0  0  0
   -2.6557    1.9486   -0.7158 C   0  0  0  0  0
   -3.2361    3.9277    0.7807 C   0  0  0  0  0
   -2.9525    0.8677   -4.3242 N   0  0  0  0  0
   -2.7093   -0.4245   -4.7319 N   0  0  0  0  0
   -2.9477   -1.2869   -3.7513 N   0  0  0  0  0
   -1.4547    1.4921   -0.7993 N   0  0  0  0  0
   -3.3452   -0.5336   -2.7164 N   0  0  0  0  0
   -0.7406    1.4761    0.3406 N   0  0  0  0  0
    3.0457   -0.4482   -2.0267 N   0  0  0  0  0
    4.2254   -0.8744   -1.9985 O   0  0  0  0  0
   -4.0503    1.6783    1.1335 O   0  0  0  0  0
    2.3656   -0.4404   -3.0810 O   0  0  0  0  0
   -3.8080    2.1196   -1.9967 S   0  0  0  0  0
  1  2  1  0  0  0
  3  6  1  0  0  0
  4  8  1  0  0  0
  5 10  1  0  0  0
  7 11  1  0  0  0
  9 12  1  0  0  0
 10 21  1  0  0  0
 11 22  1  0  0  0
 12 23  1  0  0  0
 13 21  1  0  0  0
 13 27  1  0  0  0
 14 15  1  0  0  0
 15 27  1  0  0  0
 16 14  1  0  0  0
 17 18  1  0  0  0
 21 19  1  0  0  0
 22 20  1  0  0  0
 23 24  1  0  0  0
  1  3  2  0  0  0
  2  5  2  0  0  0
  4  7  2  0  0  0
  6 10  2  0  0  0
  8 12  2  0  0  0
  9 11  2  0  0  0
 13 17  2  0  0  0
 14 25  2  0  0  0
 15 20  2  0  0  0
 18 19  2  0  0  0
 23 26  2  0  0  0
M  CHG  2  23   1  24  -1
M  END
> <rmsd>
0.368107617

$$$$
ZINC36635225


 27 29  0  0  0  0  0  0  0  0999 V2000
   -3.5668   -3.4202   -0.3910 C   0  0  0  0  0
   -2.9448   -2.5272    0.4814 C   0  0  0  0  0
   -4.2156   -2.9446   -1.5305 C   0  0  0  0  0
    2.1310   -1.1114    0.9968 C   0  0  0  0  0
    1.3628   -0.6944    2.0838 C   0  0  0  0  0
   -2.9718   -1.1584    0.2145 C   0  0  0  0  0
   -4.2425   -1.5758   -1.7975 C   0  0  0  0  0
    1.0002    0.4888   -0.4166 C   0  0  0  0  0
    1.9498   -0.5199   -0.2534 C   0  0  0  0  0
    0.4132    0.3143    1.9206 C   0  0  0  0  0
   -3.6206   -0.6827   -0.9250 C   0  0  0  0  0
    0.2319    0.9059    0.6703 C   0  0  0  0  0
   -3.6260    1.6781   -0.1709 C   0  0  0  0  0
   -3.7137    1.2176   -2.4999 C   0  0  0  0  0
    2.7605   -0.9598   -1.4001 C   0  0  0  0  0
   -1.0204    2.6149   -0.6908 C   0  0  0  0  0
   -3.5085    3.0859   -0.7066 C   0  0  0  0  0
   -0.3954    0.7418    3.1023 C   0  0  0  0  0
   -2.1172    3.6416   -0.4507 C   0  0  0  0  0
   -3.6482    0.7297   -1.2003 N   0  0  0  0  0
   -0.7255    1.9316    0.4855 N   0  0  0  0  0
    2.5733   -0.3977   -2.5437 O   0  0  0  0  0
   -3.7114    1.4773    1.0385 O   0  0  0  0  0
   -3.6544    0.6166   -3.5624 O   0  0  0  0  0
    3.6305   -1.8928   -1.2227 O   0  0  0  0  0
   -0.5063    2.4579   -1.7932 O   0  0  0  0  0
   -3.8358    2.9680   -2.4748 S   0  0  0  0  0
  1  2  1  0  0  0
  3  7  1  0  0  0
  4  9  1  0  0  0
  5 10  1  0  0  0
  6 11  1  0  0  0
  8 12  1  0  0  0
  9 15  1  0  0  0
 11 20  1  0  0  0
 12 21  1  0  0  0
 13 20  1  0  0  0
 14 20  1  0  0  0
 14 27  1  0  0  0
 15 22  1  0  0  0
 16 21  1  0  0  0
 17 13  1  0  0  0
 17 19  1  0  0  0
 17 27  1  0  0  0
 18 10  1  0  0  0
 19 16  1  0  0  0
  1  3  2  0  0  0
  2  6  2  0  0  0
  4  5  2  0  0  0
  7 11  2  0  0  0
  8  9  2  0  0  0
 10 12  2  0  0  0
 13 23  2  0  0  0
 14 24  2  0  0  0
 15 25  2  0  0  0
 16 26  2  0  0  0
M  CHG  1  22  -1
M  END
> <rmsd>
0.568258166

$$$$
ZINC16923298


 27 29  0  0  0  0  0  0  0  0999 V2000
    1.3158   -1.3412    1.6522 C   0  0  0  0  0
    2.2262   -1.5077    0.6087 C   0  0  0  0  0
   -3.5119   -2.4374    0.8663 C   0  0  0  0  0
   -4.3095   -2.8941   -1.3680 C   0  0  0  0  0
   -3.3329   -1.0961    0.5283 C   0  0  0  0  0
   -4.1306   -1.5527   -1.7060 C   0  0  0  0  0
    0.3892   -0.2995    1.6097 C   0  0  0  0  0
    1.2836    0.4094   -0.5196 C   0  0  0  0  0
    2.2102   -0.6324   -0.4772 C   0  0  0  0  0
   -4.0003   -3.3364   -0.0818 C   0  0  0  0  0
   -3.6422   -0.6537   -0.7579 C   0  0  0  0  0
    0.3731    0.5759    0.5239 C   0  0  0  0  0
   -3.5808    1.7495   -0.1554 C   0  0  0  0  0
   -3.1649    1.1206   -2.4084 C   0  0  0  0  0
    3.1719   -0.8082   -1.5778 C   0  0  0  0  0
   -0.7228    2.5904   -0.5165 C   0  0  0  0  0
   -3.1956    3.0961   -0.7217 C   0  0  0  0  0
   -4.1909   -4.7707    0.2791 C   0  0  0  0  0
   -1.8539    3.5460   -0.1672 C   0  0  0  0  0
   -3.4580    0.7303   -1.1071 N   0  0  0  0  0
   -0.5670    1.6328    0.4816 N   0  0  0  0  0
    3.1361    0.0132   -2.5689 O   0  0  0  0  0
   -3.9689    1.6505    1.0064 O   0  0  0  0  0
   -2.9195    0.4367   -3.3911 O   0  0  0  0  0
    4.0170   -1.7778   -1.5131 O   0  0  0  0  0
   -0.0743    2.7007   -1.5517 O   0  0  0  0  0
   -3.1079    2.8717   -2.5076 S   0  0  0  0  0
  1  2  1  0  0  0
  3 10  1  0  0  0
  4  6  1  0  0  0
  5 11  1  0  0  0
  7 12  1  0  0  0
  8  9  1  0  0  0
  9 15  1  0  0  0
 11 20  1  0  0  0
 12 21  1  0  0  0
 13 20  1  0  0  0
 14 20  1  0  0  0
 14 27  1  0  0  0
 15 22  1  0  0  0
 16 21  1  0  0  0
 17 13  1  0  0  0
 17 19  1  0  0  0
 17 27  1  0  0  0
 18 10  1  0  0  0
 19 16  1  0  0  0
  1  7  2  0  0  0
  2  9  2  0  0  0
  3  5  2  0  0  0
  4 10  2  0  0  0
  6 11  2  0  0  0
  8 12  2  0  0  0
 13 23  2  0  0  0
 14 24  2  0  0  0
 15 25  2  0  0  0
 16 26  2  0  0  0
M  CHG  1  22  -1
M  END
> <rmsd>
0.329754889

$$$$
ZINC13735618


 28 30  0  0  0  0  0  0  0  0999 V2000
   -1.3981   -2.4085   -0.6416 C   0  0  0  0  0
    1.8602   -0.2507   -0.4589 C   0  0  0  0  0
   -0.7944   -2.0525   -1.8510 C   0  0  0  0  0
    0.8201    0.2450    0.3194 C   0  0  0  0  0
   -2.7968   -0.8838   -2.5732 C   0  0  0  0  0
    1.3112    1.3569   -2.1235 C   0  0  0  0  0
   -4.7569   -1.5824    0.4318 C   0  0  0  0  0
   -3.4261   -1.2306   -1.3611 C   0  0  0  0  0
   -4.7135   -0.9848   -0.8067 C   0  0  0  0  0
   -2.7137   -1.9834   -0.4252 C   0  0  0  0  0
    2.1171    0.3103   -1.7049 C   0  0  0  0  0
   -1.4811   -1.3020   -2.8034 C   0  0  0  0  0
    0.0724    1.2945   -0.1897 C   0  0  0  0  0
   -3.8003    2.0661   -0.1219 C   0  0  0  0  0
   -1.6204   -0.2007   -4.9066 C   0  0  0  0  0
   -5.8368   -0.2109   -1.4518 C   0  0  0  0  0
   -2.6962    3.0066   -0.5707 C   0  0  0  0  0
   -6.0064    1.1899   -0.8688 C   0  0  0  0  0
   -1.5526    3.0831    0.4315 C   0  0  0  0  0
    0.2919    1.8651   -1.3955 N   0  0  0  0  0
   -3.5462   -2.1819    0.6531 N   0  0  0  0  0
   -0.9611    1.7779    0.5977 N   0  0  0  0  0
   -4.8313    2.0112   -1.0483 N   0  0  0  0  0
    3.1703   -0.1731   -2.5209 N   0  0  0  0  0
    3.8783   -1.1235   -2.1047 O   0  0  0  0  0
   -3.7625    1.4404    0.9340 O   0  0  0  0  0
    3.3698    0.3605   -3.6403 O   0  0  0  0  0
   -0.8653   -0.9697   -3.9730 O   0  0  0  0  0
  1 10  1  0  0  0
  2 11  1  0  0  0
  3 12  1  0  0  0
  4 13  1  0  0  0
  5  8  1  0  0  0
  6 20  1  0  0  0
  7 21  1  0  0  0
  8  9  1  0  0  0
 10 21  1  0  0  0
 11 24  1  0  0  0
 12 28  1  0  0  0
 13 22  1  0  0  0
 14 23  1  0  0  0
 15 28  1  0  0  0
 16  9  1  0  0  0
 16 18  1  0  0  0
 17 14  1  0  0  0
 17 19  1  0  0  0
 18 23  1  0  0  0
 19 22  1  0  0  0
 24 25  1  0  0  0
  1  3  2  0  0  0
  2  4  2  0  0  0
  5 12  2  0  0  0
  6 11  2  0  0  0
  7  9  2  0  0  0
  8 10  2  0  0  0
 13 20  2  0  0  0
 14 26  2  0  0  0
 24 27  2  0  0  0
M  CHG  2  24   1  25  -1
M  END
> <rmsd>
0.297954708

$$$$
ZINC32962249


 25 26  0  0  0  0  0  0  0  0999 V2000
   -0.0321    2.7721   -1.2823 C   0  0  0  0  0
    1.0287    2.8913   -2.1799 C   0  0  0  0  0
   -2.4309   -2.2513   -1.8007 C   0  0  0  0  0
   -2.8671   -3.1012   -0.7843 C   0  0  0  0  0
    0.9973    0.8065   -0.3264 C   0  0  0  0  0
   -3.2123   -1.1958    0.6605 C   0  0  0  0  0
    2.0583    0.9257   -1.2241 C   0  0  0  0  0
   -0.0479    1.7297   -0.3555 C   0  0  0  0  0
    2.0741    1.9681   -2.1509 C   0  0  0  0  0
   -2.3852   -0.8737   -1.5865 C   0  0  0  0  0
   -2.7760   -0.3460   -0.3559 C   0  0  0  0  0
   -3.2579   -2.5734    0.4463 C   0  0  0  0  0
    3.1515   -0.0632   -1.1719 C   0  0  0  0  0
    4.3028    2.8963   -2.7267 C   0  0  0  0  0
    3.0836    1.4461   -4.3573 C   0  0  0  0  0
   -1.5769   -0.6920   -3.8157 C   0  0  0  0  0
   -1.1345    1.6076    0.5626 N   0  0  0  0  0
    3.1387    2.1057   -3.0691 N   0  0  0  0  0
    3.0559   -1.1264   -1.8898 O   0  0  0  0  0
    4.1607    0.1728   -0.4100 O   0  0  0  0  0
   -3.6859    1.6723    0.9948 O   0  0  0  0  0
   -2.8528    2.0685   -1.3394 O   0  0  0  0  0
   -1.9556   -0.0624   -2.5934 O   0  0  0  0  0
   -2.7273    1.3983   -0.0595 S   0  0  0  0  0
   -3.7968   -3.6223    1.6997 Cl  0  0  0  0  0
  1  8  1  0  0  0
  2  9  1  0  0  0
  3 10  1  0  0  0
  4 12  1  0  0  0
  5  7  1  0  0  0
  6 11  1  0  0  0
  7 13  1  0  0  0
  8 17  1  0  0  0
  9 18  1  0  0  0
 10 23  1  0  0  0
 12 25  1  0  0  0
 13 19  1  0  0  0
 14 18  1  0  0  0
 15 18  1  0  0  0
 16 23  1  0  0  0
 24 11  1  0  0  0
 24 17  1  0  0  0
  1  2  2  0  0  0
  3  4  2  0  0  0
  5  8  2  0  0  0
  6 12  2  0  0  0
  7  9  2  0  0  0
 10 11  2  0  0  0
 13 20  2  0  0  0
 24 21  2  0  0  0
 24 22  2  0  0  0
M  CHG  1  19  -1
M  END
> <rmsd>
0.701446593

$$$$
ZINC32962249


 25 26  0  0  0  0  0  0  0  0999 V2000
   -0.1008    2.5076   -1.5674 C   0  0  0  0  0
    0.8765    2.5337   -2.5621 C   0  0  0  0  0
   -2.9166   -2.3182   -1.7679 C   0  0  0  0  0
   -3.3189   -3.1202   -0.6999 C   0  0  0  0  0
    0.8603    0.4781   -0.6761 C   0  0  0  0  0
   -3.3785   -1.1780    0.7359 C   0  0  0  0  0
    1.8377    0.5041   -1.6710 C   0  0  0  0  0
   -0.1090    1.4799   -0.6243 C   0  0  0  0  0
    1.8459    1.5320   -2.6140 C   0  0  0  0  0
   -2.7452   -0.9461   -1.5840 C   0  0  0  0  0
   -2.9763   -0.3761   -0.3321 C   0  0  0  0  0
   -3.5498   -2.5501    0.5520 C   0  0  0  0  0
    2.8517   -0.5666   -1.7030 C   0  0  0  0  0
    4.0749    2.2766   -3.4122 C   0  0  0  0  0
    2.5993    0.9085   -4.8951 C   0  0  0  0  0
   -2.1396   -0.8525   -3.8819 C   0  0  0  0  0
   -1.1101    1.4531    0.3933 N   0  0  0  0  0
    2.8264    1.5758   -3.6300 N   0  0  0  0  0
    2.6073   -1.6268   -2.3893 O   0  0  0  0  0
    3.9436   -0.4019   -1.0431 O   0  0  0  0  0
   -3.5967    1.7218    1.0606 O   0  0  0  0  0
   -2.9600    2.0262   -1.3481 O   0  0  0  0  0
   -2.3516   -0.1820   -2.6413 O   0  0  0  0  0
   -2.7659    1.3622   -0.0734 S   0  0  0  0  0
   -4.0469   -3.5399    1.8691 Cl  0  0  0  0  0
  1  8  1  0  0  0
  2  9  1  0  0  0
  3 10  1  0  0  0
  4 12  1  0  0  0
  5  7  1  0  0  0
  6 11  1  0  0  0
  7 13  1  0  0  0
  8 17  1  0  0  0
  9 18  1  0  0  0
 10 23  1  0  0  0
 12 25  1  0  0  0
 13 19  1  0  0  0
 14 18  1  0  0  0
 15 18  1  0  0  0
 16 23  1  0  0  0
 24 11  1  0  0  0
 24 17  1  0  0  0
  1  2  2  0  0  0
  3  4  2  0  0  0
  5  8  2  0  0  0
  6 12  2  0  0  0
  7  9  2  0  0  0
 10 11  2  0  0  0
 13 20  2  0  0  0
 24 21  2  0  0  0
 24 22  2  0  0  0
M  CHG  1  19  -1
M  END
> <rmsd>
0.521168709

$$$$
ZINC57769660


 26 28  0  0  0  0  0  0  0  0999 V2000
   -3.5562   -2.5688    0.5599 C   0  0  0  0  0
   -3.3899   -1.1935    0.7363 C   0  0  0  0  0
    1.8241    1.4787   -2.6416 C   0  0  0  0  0
    0.8592    0.4656   -0.6719 C   0  0  0  0  0
   -2.7328   -0.9276   -1.5918 C   0  0  0  0  0
   -0.1234    2.4652   -1.6065 C   0  0  0  0  0
    1.8300    0.4746   -1.6735 C   0  0  0  0  0
   -3.3199   -3.1022   -0.6959 C   0  0  0  0  0
   -2.9121   -2.2900   -1.7606 C   0  0  0  0  0
    0.8474    2.4741   -2.6081 C   0  0  0  0  0
   -0.1174    1.4609   -0.6384 C   0  0  0  0  0
   -2.9813   -0.3788   -0.3318 C   0  0  0  0  0
    2.8606   -0.5758   -1.7085 C   0  0  0  0  0
   -3.3933   -4.5359   -1.1172 C   0  0  0  0  0
   -2.6738   -3.1055   -2.9921 C   0  0  0  0  0
   -3.4339   -4.3948   -2.6463 C   0  0  0  0  0
    0.8395    3.5464   -3.6448 C   0  0  0  0  0
   -1.1182    1.4522    0.3944 N   0  0  0  0  0
    2.8435   -1.4911   -0.8026 O   0  0  0  0  0
    3.7455   -0.5450   -2.6436 O   0  0  0  0  0
   -3.5957    1.7210    1.0610 O   0  0  0  0  0
   -2.9643    2.0227   -1.3494 O   0  0  0  0  0
    1.8446    3.4282   -4.5622 F   0  0  0  0  0
   -0.3108    3.5873   -4.3801 F   0  0  0  0  0
    0.9769    4.7946   -3.1101 F   0  0  0  0  0
   -2.7708    1.3372   -0.0780 S   0  0  0  0  0
  1  2  1  0  0  0
  3  7  1  0  0  0
  4 11  1  0  0  0
  5 12  1  0  0  0
  6 10  1  0  0  0
  7 13  1  0  0  0
  8  9  1  0  0  0
 11 18  1  0  0  0
 13 19  1  0  0  0
 14  8  1  0  0  0
 14 16  1  0  0  0
 15  9  1  0  0  0
 15 16  1  0  0  0
 17 10  1  0  0  0
 17 23  1  0  0  0
 17 24  1  0  0  0
 17 25  1  0  0  0
 26 12  1  0  0  0
 26 18  1  0  0  0
  1  8  2  0  0  0
  2 12  2  0  0  0
  3 10  2  0  0  0
  4  7  2  0  0  0
  5  9  2  0  0  0
  6 11  2  0  0  0
 13 20  2  0  0  0
 26 21  2  0  0  0
 26 22  2  0  0  0
M  CHG  1  19  -1
M  END
> <rmsd>
0.517811894

$$$$
ZINC35397668


 26 27  0  0  0  0  0  0  0  0999 V2000
   -2.8727   -3.1054   -0.7860 C   0  0  0  0  0
   -2.4298   -2.2510   -1.7957 C   0  0  0  0  0
    1.0044    0.7936   -0.3280 C   0  0  0  0  0
   -3.2275   -1.2064    0.6649 C   0  0  0  0  0
   -0.0181    2.6943   -1.3274 C   0  0  0  0  0
    2.0455    0.9110   -1.2421 C   0  0  0  0  0
   -0.0509    1.6983   -0.3648 C   0  0  0  0  0
   -3.2716   -2.5831    0.4443 C   0  0  0  0  0
   -2.3857   -0.8745   -1.5752 C   0  0  0  0  0
   -2.7846   -0.3521   -0.3449 C   0  0  0  0  0
    1.9845    1.9421   -2.1656 C   0  0  0  0  0
    3.1622   -0.0487   -1.2012 C   0  0  0  0  0
    2.2934    2.2286   -5.3988 C   0  0  0  0  0
    3.9062    4.3308   -3.0525 C   0  0  0  0  0
    2.9724    1.3859   -4.3734 C   0  0  0  0  0
    4.1906    2.8907   -2.7924 C   0  0  0  0  0
    0.9759    2.8400   -2.2320 N   0  0  0  0  0
   -1.1422    1.6029    0.5669 N   0  0  0  0  0
    3.0422    2.0680   -3.1006 N   0  0  0  0  0
    3.0778   -1.1263   -1.9002 O   0  0  0  0  0
    4.1846    0.2228   -0.4674 O   0  0  0  0  0
   -3.6853    1.6788    0.9930 O   0  0  0  0  0
   -2.8505    2.0564   -1.3436 O   0  0  0  0  0
   -3.6958   -3.4033    1.4147 F   0  0  0  0  0
   -1.9582   -0.0634   -2.5529 F   0  0  0  0  0
   -2.7287    1.3702   -0.0633 S   0  0  0  0  0
  1  8  1  0  0  0
  2  9  1  0  0  0
  3  7  1  0  0  0
  4 10  1  0  0  0
  5 17  1  0  0  0
  6 11  1  0  0  0
  6 12  1  0  0  0
  7 18  1  0  0  0
  8 24  1  0  0  0
  9 25  1  0  0  0
 11 19  1  0  0  0
 12 20  1  0  0  0
 13 15  1  0  0  0
 14 16  1  0  0  0
 15 19  1  0  0  0
 16 19  1  0  0  0
 26 10  1  0  0  0
 26 18  1  0  0  0
  1  2  2  0  0  0
  3  6  2  0  0  0
  4  8  2  0  0  0
  5  7  2  0  0  0
  9 10  2  0  0  0
 11 17  2  0  0  0
 12 21  2  0  0  0
 26 22  2  0  0  0
 26 23  2  0  0  0
M  CHG  1  20  -1
M  END
> <rmsd>
0.694813192

$$$$
ZINC35397668


 26 27  0  0  0  0  0  0  0  0999 V2000
   -3.3283   -3.1259   -0.6954 C   0  0  0  0  0
   -2.9139   -2.3227   -1.7578 C   0  0  0  0  0
    0.8689    0.4553   -0.6668 C   0  0  0  0  0
   -3.3985   -1.1864    0.7435 C   0  0  0  0  0
   -0.0880    2.4190   -1.6075 C   0  0  0  0  0
    1.8280    0.4773   -1.6732 C   0  0  0  0  0
   -0.1109    1.4411   -0.6262 C   0  0  0  0  0
   -3.5707   -2.5578    0.5552 C   0  0  0  0  0
   -2.7417   -0.9514   -1.5696 C   0  0  0  0  0
   -2.9840   -0.3832   -0.3189 C   0  0  0  0  0
    1.7641    1.4983   -2.6077 C   0  0  0  0  0
    2.8649   -0.5682   -1.7141 C   0  0  0  0  0
    1.7974    1.7181   -5.8607 C   0  0  0  0  0
    3.7785    3.7138   -3.7117 C   0  0  0  0  0
    2.4990    0.8368   -4.8842 C   0  0  0  0  0
    3.9714    2.2589   -3.4497 C   0  0  0  0  0
    0.8275    2.4732   -2.6008 N   0  0  0  0  0
   -1.1164    1.4453    0.4019 N   0  0  0  0  0
    2.7384    1.5271   -3.6367 N   0  0  0  0  0
    2.6323   -1.6443   -2.3811 O   0  0  0  0  0
    3.9683   -0.3702   -1.0811 O   0  0  0  0  0
   -3.5959    1.7302    1.0540 O   0  0  0  0  0
   -2.9514    2.0100   -1.3554 O   0  0  0  0  0
   -3.9674   -3.3290    1.5760 F   0  0  0  0  0
   -2.3430   -0.1896   -2.5978 F   0  0  0  0  0
   -2.7673    1.3325   -0.0779 S   0  0  0  0  0
  1  8  1  0  0  0
  2  9  1  0  0  0
  3  7  1  0  0  0
  4 10  1  0  0  0
  5 17  1  0  0  0
  6 11  1  0  0  0
  6 12  1  0  0  0
  7 18  1  0  0  0
  8 24  1  0  0  0
  9 25  1  0  0  0
 11 19  1  0  0  0
 12 20  1  0  0  0
 13 15  1  0  0  0
 14 16  1  0  0  0
 15 19  1  0  0  0
 16 19  1  0  0  0
 26 10  1  0  0  0
 26 18  1  0  0  0
  1  2  2  0  0  0
  3  6  2  0  0  0
  4  8  2  0  0  0
  5  7  2  0  0  0
  9 10  2  0  0  0
 11 17  2  0  0  0
 12 21  2  0  0  0
 26 22  2  0  0  0
 26 23  2  0  0  0
M  CHG  1  20  -1
M  END
> <rmsd>
0.512514412

$$$$
ZINC03653493


 26 29  0  0  0  0  0  0  0  0999 V2000
   -3.7239   -2.4096    0.9810 C   0  0  0  0  0
   -3.3874   -1.0871    0.6388 C   0  0  0  0  0
   -3.8644   -3.3951   -0.0025 C   0  0  0  0  0
    1.6236    1.7763   -1.7212 C   0  0  0  0  0
    1.6932   -0.4123   -0.7002 C   0  0  0  0  0
    0.5071    2.1004   -0.9504 C   0  0  0  0  0
    0.5767   -0.0882    0.0706 C   0  0  0  0  0
   -2.8243   -0.2377   -3.4792 C   0  0  0  0  0
   -2.6688    0.7939   -2.5450 C   0  0  0  0  0
   -3.1841   -0.7267   -0.7073 C   0  0  0  0  0
   -3.3317   -1.7340   -1.6688 C   0  0  0  0  0
   -3.6631   -3.0338   -1.3249 C   0  0  0  0  0
    2.2165    0.5200   -1.5961 C   0  0  0  0  0
   -0.0163    1.1682   -0.0545 C   0  0  0  0  0
   -3.1577   -1.5028   -3.0228 C   0  0  0  0  0
   -2.8456    0.5580   -1.1707 C   0  0  0  0  0
   -3.7642   -3.9208   -2.4960 C   0  0  0  0  0
    3.3952    0.1781   -2.4089 C   0  0  0  0  0
   -1.1685    1.5016    0.7391 N   0  0  0  0  0
    3.9238   -0.9885   -2.2739 O   0  0  0  0  0
   -4.0401   -5.1058   -2.4736 O   0  0  0  0  0
    3.8593    1.0569   -3.2279 O   0  0  0  0  0
   -3.7170    1.8722    0.8883 O   0  0  0  0  0
   -2.4269    3.1147   -0.8699 O   0  0  0  0  0
   -3.4171   -2.9866   -3.9671 S   0  0  0  0  0
   -2.6277    1.9108   -0.0771 S   0  0  0  0  0
  1  2  1  0  0  0
  3 12  1  0  0  0
  4 13  1  0  0  0
  5  7  1  0  0  0
  6 14  1  0  0  0
  8  9  1  0  0  0
 10 11  1  0  0  0
 10 16  1  0  0  0
 11 15  1  0  0  0
 12 17  1  0  0  0
 13 18  1  0  0  0
 14 19  1  0  0  0
 15 25  1  0  0  0
 17 25  1  0  0  0
 18 20  1  0  0  0
 26 16  1  0  0  0
 26 19  1  0  0  0
  1  3  2  0  0  0
  2 10  2  0  0  0
  4  6  2  0  0  0
  5 13  2  0  0  0
  7 14  2  0  0  0
  8 15  2  0  0  0
  9 16  2  0  0  0
 11 12  2  0  0  0
 17 21  2  0  0  0
 18 22  2  0  0  0
 26 23  2  0  0  0
 26 24  2  0  0  0
M  CHG  1  20  -1
M  END
> <rmsd>
0.481150836

$$$$
ZINC11613981


 27 29  0  0  0  0  0  0  0  0999 V2000
   -3.8634   -3.3240    0.0884 C   0  0  0  0  0
   -3.7117   -2.3081    1.0274 C   0  0  0  0  0
   -3.6772   -3.0550   -1.2679 C   0  0  0  0  0
   -3.3734   -1.0194    0.6140 C   0  0  0  0  0
    1.6329    1.7816   -1.7076 C   0  0  0  0  0
    1.6942   -0.4159   -0.7056 C   0  0  0  0  0
    0.5141    2.1012   -0.9384 C   0  0  0  0  0
    0.5754   -0.0963    0.0637 C   0  0  0  0  0
   -2.8069   -0.1859   -3.4766 C   0  0  0  0  0
   -2.6553    0.8299   -2.5374 C   0  0  0  0  0
   -3.3364   -1.7635   -1.7020 C   0  0  0  0  0
   -3.1823   -0.7305   -0.7470 C   0  0  0  0  0
    2.2229    0.5230   -1.5912 C   0  0  0  0  0
   -0.0146    1.1623   -0.0527 C   0  0  0  0  0
   -3.1452   -1.4748   -3.0631 C   0  0  0  0  0
   -2.8415    0.5609   -1.1812 C   0  0  0  0  0
    3.4041    0.1858   -2.4023 C   0  0  0  0  0
   -0.9901   -4.5434   -6.1200 C   0  0  0  0  0
   -2.1903   -4.1698   -5.2687 C   0  0  0  0  0
   -2.1378   -2.7163   -4.8237 C   0  0  0  0  0
   -1.1691    1.4913    0.7393 N   0  0  0  0  0
    3.9297   -0.9830   -2.2756 O   0  0  0  0  0
    3.8730    1.0709   -3.2118 O   0  0  0  0  0
   -3.7175    1.8645    0.8826 O   0  0  0  0  0
   -2.4202    3.1153   -0.8643 O   0  0  0  0  0
   -3.2815   -2.4390   -4.0207 O   0  0  0  0  0
   -2.6247    1.9105   -0.0763 S   0  0  0  0  0
  1  2  1  0  0  0
  3 11  1  0  0  0
  4 12  1  0  0  0
  5 13  1  0  0  0
  6  8  1  0  0  0
  7 14  1  0  0  0
  9 15  1  0  0  0
 10 16  1  0  0  0
 11 12  1  0  0  0
 13 17  1  0  0  0
 14 21  1  0  0  0
 15 26  1  0  0  0
 17 22  1  0  0  0
 18 19  1  0  0  0
 19 20  1  0  0  0
 20 26  1  0  0  0
 27 16  1  0  0  0
 27 21  1  0  0  0
  1  3  2  0  0  0
  2  4  2  0  0  0
  5  7  2  0  0  0
  6 13  2  0  0  0
  8 14  2  0  0  0
  9 10  2  0  0  0
 11 15  2  0  0  0
 12 16  2  0  0  0
 17 23  2  0  0  0
 27 24  2  0  0  0
 27 25  2  0  0  0
M  CHG  1  22  -1
M  END
> <rmsd>
0.46770972

$$$$
ZINC11613981


 27 29  0  0  0  0  0  0  0  0999 V2000
   -3.8637   -3.3234    0.0881 C   0  0  0  0  0
   -3.7121   -2.3076    1.0272 C   0  0  0  0  0
   -3.6775   -3.0543   -1.2682 C   0  0  0  0  0
   -3.3737   -1.0188    0.6139 C   0  0  0  0  0
    1.6327    1.7822   -1.7075 C   0  0  0  0  0
    1.6939   -0.4154   -0.7056 C   0  0  0  0  0
    0.5139    2.1018   -0.9384 C   0  0  0  0  0
    0.5751   -0.0958    0.0636 C   0  0  0  0  0
   -2.8071   -0.1852   -3.4767 C   0  0  0  0  0
   -2.6555    0.8306   -2.5375 C   0  0  0  0  0
   -3.3367   -1.7628   -1.7023 C   0  0  0  0  0
   -3.1826   -0.7299   -0.7472 C   0  0  0  0  0
    2.2227    0.5236   -1.5913 C   0  0  0  0  0
   -0.0149    1.1629   -0.0527 C   0  0  0  0  0
   -3.1455   -1.4740   -3.0633 C   0  0  0  0  0
   -2.8417    0.5616   -1.1813 C   0  0  0  0  0
    3.4038    0.1864   -2.4024 C   0  0  0  0  0
   -5.8713   -3.4076   -6.5589 C   0  0  0  0  0
   -4.8164   -3.5630   -5.4781 C   0  0  0  0  0
   -4.2726   -2.2183   -5.0206 C   0  0  0  0  0
   -1.1694    1.4918    0.7393 N   0  0  0  0  0
    3.9295   -0.9824   -2.2757 O   0  0  0  0  0
    3.8728    1.0715   -3.2118 O   0  0  0  0  0
   -3.7177    1.8651    0.8825 O   0  0  0  0  0
   -2.4204    3.1160   -0.8643 O   0  0  0  0  0
   -3.2817   -2.4382   -4.0209 O   0  0  0  0  0
   -2.6249    1.9111   -0.0763 S   0  0  0  0  0
  1  2  1  0  0  0
  3 11  1  0  0  0
  4 12  1  0  0  0
  5 13  1  0  0  0
  6  8  1  0  0  0
  7 14  1  0  0  0
  9 15  1  0  0  0
 10 16  1  0  0  0
 11 12  1  0  0  0
 13 17  1  0  0  0
 14 21  1  0  0  0
 15 26  1  0  0  0
 17 22  1  0  0  0
 18 19  1  0  0  0
 19 20  1  0  0  0
 20 26  1  0  0  0
 27 16  1  0  0  0
 27 21  1  0  0  0
  1  3  2  0  0  0
  2  4  2  0  0  0
  5  7  2  0  0  0
  6 13  2  0  0  0
  8 14  2  0  0  0
  9 10  2  0  0  0
 11 15  2  0  0  0
 12 16  2  0  0  0
 17 23  2  0  0  0
 27 24  2  0  0  0
 27 25  2  0  0  0
M  CHG  1  22  -1
M  END
> <rmsd>
0.46754995

$$$$
ZINC35397726


 25 26  0  0  0  0  0  0  0  0999 V2000
   -2.9247   -2.3315   -1.7501 C   0  0  0  0  0
   -3.3417   -3.1242   -0.6809 C   0  0  0  0  0
    0.8708    0.4565   -0.6662 C   0  0  0  0  0
   -3.4000   -1.1731    0.7428 C   0  0  0  0  0
   -0.0802    2.4269   -1.5986 C   0  0  0  0  0
    1.8323    0.4821   -1.6703 C   0  0  0  0  0
   -0.1072    1.4439   -0.6226 C   0  0  0  0  0
   -2.7451   -0.9597   -1.5729 C   0  0  0  0  0
   -2.9827   -0.3804   -0.3264 C   0  0  0  0  0
   -3.5795   -2.5450    0.5656 C   0  0  0  0  0
    1.7723    1.5081   -2.5996 C   0  0  0  0  0
    2.8673   -0.5651   -1.7144 C   0  0  0  0  0
    2.5113    0.8573   -4.8779 C   0  0  0  0  0
    3.9830    2.2691   -3.4325 C   0  0  0  0  0
   -2.1191   -0.8840   -3.8660 C   0  0  0  0  0
    0.8375    2.4848   -2.5895 N   0  0  0  0  0
   -1.1151    1.4445    0.4033 N   0  0  0  0  0
    2.7491    1.5407   -3.6262 N   0  0  0  0  0
    2.6342   -1.6373   -2.3877 O   0  0  0  0  0
    3.9696   -0.3727   -1.0779 O   0  0  0  0  0
   -3.5955    1.7289    1.0523 O   0  0  0  0  0
   -2.9468    2.0161   -1.3552 O   0  0  0  0  0
   -2.3371   -0.2046   -2.6313 O   0  0  0  0  0
   -2.7649    1.3375   -0.0791 S   0  0  0  0  0
   -4.0947   -3.5234    1.8843 Cl  0  0  0  0  0
  1  8  1  0  0  0
  2 10  1  0  0  0
  3  7  1  0  0  0
  4  9  1  0  0  0
  5 16  1  0  0  0
  6 11  1  0  0  0
  6 12  1  0  0  0
  7 17  1  0  0  0
  8 23  1  0  0  0
 10 25  1  0  0  0
 11 18  1  0  0  0
 12 19  1  0  0  0
 13 18  1  0  0  0
 14 18  1  0  0  0
 15 23  1  0  0  0
 24  9  1  0  0  0
 24 17  1  0  0  0
  1  2  2  0  0  0
  3  6  2  0  0  0
  4 10  2  0  0  0
  5  7  2  0  0  0
  8  9  2  0  0  0
 11 16  2  0  0  0
 12 20  2  0  0  0
 24 21  2  0  0  0
 24 22  2  0  0  0
M  CHG  1  19  -1
M  END
> <rmsd>
0.508199453

$$$$
ZINC35397726


 25 26  0  0  0  0  0  0  0  0999 V2000
   -2.4404   -2.2622   -1.7874 C   0  0  0  0  0
   -2.8884   -3.1056   -0.7708 C   0  0  0  0  0
    1.0065    0.7928   -0.3245 C   0  0  0  0  0
   -3.2312   -1.1930    0.6651 C   0  0  0  0  0
   -0.0098    2.7005   -1.3166 C   0  0  0  0  0
    2.0502    0.9131   -1.2353 C   0  0  0  0  0
   -0.0470    1.6996   -0.3593 C   0  0  0  0  0
   -2.3875   -0.8842   -1.5777 C   0  0  0  0  0
   -2.7830   -0.3495   -0.3515 C   0  0  0  0  0
   -3.2839   -2.5710    0.4554 C   0  0  0  0  0
    1.9933    1.9490   -2.1537 C   0  0  0  0  0
    3.1651   -0.0488   -1.1965 C   0  0  0  0  0
    2.9859    1.4024   -4.3619 C   0  0  0  0  0
    4.2029    2.8967   -2.7700 C   0  0  0  0  0
   -1.5637   -0.7153   -3.8023 C   0  0  0  0  0
    0.9866    2.8492   -2.2179 N   0  0  0  0  0
   -1.1408    1.6014    0.5693 N   0  0  0  0  0
    3.0537    2.0778   -3.0854 N   0  0  0  0  0
    3.0804   -1.1228   -1.9014 O   0  0  0  0  0
    4.1861    0.2169   -0.4589 O   0  0  0  0  0
   -3.6847    1.6783    0.9904 O   0  0  0  0  0
   -2.8448    2.0620   -1.3435 O   0  0  0  0  0
   -1.9465   -0.0791   -2.5847 O   0  0  0  0  0
   -2.7262    1.3750   -0.0643 S   0  0  0  0  0
   -3.8373   -3.6122    1.7090 Cl  0  0  0  0  0
  1  8  1  0  0  0
  2 10  1  0  0  0
  3  7  1  0  0  0
  4  9  1  0  0  0
  5 16  1  0  0  0
  6 11  1  0  0  0
  6 12  1  0  0  0
  7 17  1  0  0  0
  8 23  1  0  0  0
 10 25  1  0  0  0
 11 18  1  0  0  0
 12 19  1  0  0  0
 13 18  1  0  0  0
 14 18  1  0  0  0
 15 23  1  0  0  0
 24  9  1  0  0  0
 24 17  1  0  0  0
  1  2  2  0  0  0
  3  6  2  0  0  0
  4 10  2  0  0  0
  5  7  2  0  0  0
  8  9  2  0  0  0
 11 16  2  0  0  0
 12 20  2  0  0  0
 24 21  2  0  0  0
 24 22  2  0  0  0
M  CHG  1  19  -1
M  END
> <rmsd>
0.689512789

$$$$
ZINC35397728


 25 26  0  0  0  0  0  0  0  0999 V2000
   -3.5709   -2.5605    0.5547 C   0  0  0  0  0
   -3.3962   -1.1899    0.7455 C   0  0  0  0  0
    0.8694    0.4554   -0.6668 C   0  0  0  0  0
   -2.7441   -0.9507   -1.5684 C   0  0  0  0  0
   -0.0892    2.4174   -1.6094 C   0  0  0  0  0
    1.8280    0.4767   -1.6738 C   0  0  0  0  0
   -0.1109    1.4407   -0.6269 C   0  0  0  0  0
   -3.3320   -3.1263   -0.6978 C   0  0  0  0  0
   -2.9829   -0.3850   -0.3160 C   0  0  0  0  0
   -2.9187   -2.3213   -1.7593 C   0  0  0  0  0
    1.7627    1.4965   -2.6096 C   0  0  0  0  0
    2.8655   -0.5681   -1.7139 C   0  0  0  0  0
    2.4970    0.8326   -4.8856 C   0  0  0  0  0
    3.9693    2.2575   -3.4537 C   0  0  0  0  0
   -2.3825   -5.3049   -0.6086 C   0  0  0  0  0
    0.8257    2.4708   -2.6033 N   0  0  0  0  0
   -1.1159    1.4454    0.4018 N   0  0  0  0  0
    2.7367    1.5247   -3.6391 N   0  0  0  0  0
    2.6331   -1.6453   -2.3795 O   0  0  0  0  0
    3.9690   -0.3688   -1.0818 O   0  0  0  0  0
   -3.5953    1.7297    1.0548 O   0  0  0  0  0
   -2.9522    2.0071   -1.3553 O   0  0  0  0  0
   -3.5106   -4.4683   -0.8552 O   0  0  0  0  0
   -2.7671    1.3311   -0.0771 S   0  0  0  0  0
   -2.6157   -2.9943   -3.3185 Cl  0  0  0  0  0
  1  8  1  0  0  0
  2  9  1  0  0  0
  3  7  1  0  0  0
  4 10  1  0  0  0
  5 16  1  0  0  0
  6 11  1  0  0  0
  6 12  1  0  0  0
  7 17  1  0  0  0
  8 23  1  0  0  0
 10 25  1  0  0  0
 11 18  1  0  0  0
 12 19  1  0  0  0
 13 18  1  0  0  0
 14 18  1  0  0  0
 15 23  1  0  0  0
 24  9  1  0  0  0
 24 17  1  0  0  0
  1  2  2  0  0  0
  3  6  2  0  0  0
  4  9  2  0  0  0
  5  7  2  0  0  0
  8 10  2  0  0  0
 11 16  2  0  0  0
 12 20  2  0  0  0
 24 21  2  0  0  0
 24 22  2  0  0  0
M  CHG  1  19  -1
M  END
> <rmsd>
0.511893809

$$$$
ZINC35397728


 25 26  0  0  0  0  0  0  0  0999 V2000
   -3.2713   -2.5858    0.4437 C   0  0  0  0  0
   -3.2251   -1.2098    0.6671 C   0  0  0  0  0
    1.0047    0.7942   -0.3283 C   0  0  0  0  0
   -2.3883   -0.8739   -1.5743 C   0  0  0  0  0
   -0.0193    2.6929   -1.3296 C   0  0  0  0  0
    2.0454    0.9110   -1.2429 C   0  0  0  0  0
   -0.0511    1.6982   -0.3657 C   0  0  0  0  0
   -2.8759   -3.1059   -0.7888 C   0  0  0  0  0
   -2.7836   -0.3538   -0.3419 C   0  0  0  0  0
   -2.4344   -2.2499   -1.7978 C   0  0  0  0  0
    1.9831    1.9409   -2.1678 C   0  0  0  0  0
    3.1627   -0.0480   -1.2013 C   0  0  0  0  0
    2.9705    1.3824   -4.3754 C   0  0  0  0  0
    4.1886    2.8899   -2.7968 C   0  0  0  0  0
   -1.7665   -5.2043   -0.6409 C   0  0  0  0  0
    0.9742    2.8381   -2.2348 N   0  0  0  0  0
   -1.1419    1.6033    0.5668 N   0  0  0  0  0
    3.0405    2.0662   -3.1035 N   0  0  0  0  0
    3.0785   -1.1266   -1.8990 O   0  0  0  0  0
    4.1852    0.2250   -0.4684 O   0  0  0  0  0
   -3.6848    1.6784    0.9939 O   0  0  0  0  0
   -2.8513    2.0535   -1.3435 O   0  0  0  0  0
   -2.9312   -4.4544   -0.9789 O   0  0  0  0  0
   -2.7286    1.3688   -0.0624 S   0  0  0  0  0
   -1.9391   -2.8657   -3.3312 Cl  0  0  0  0  0
  1  8  1  0  0  0
  2  9  1  0  0  0
  3  7  1  0  0  0
  4 10  1  0  0  0
  5 16  1  0  0  0
  6 11  1  0  0  0
  6 12  1  0  0  0
  7 17  1  0  0  0
  8 23  1  0  0  0
 10 25  1  0  0  0
 11 18  1  0  0  0
 12 19  1  0  0  0
 13 18  1  0  0  0
 14 18  1  0  0  0
 15 23  1  0  0  0
 24  9  1  0  0  0
 24 17  1  0  0  0
  1  2  2  0  0  0
  3  6  2  0  0  0
  4  9  2  0  0  0
  5  7  2  0  0  0
  8 10  2  0  0  0
 11 16  2  0  0  0
 12 20  2  0  0  0
 24 21  2  0  0  0
 24 22  2  0  0  0
M  CHG  1  19  -1
M  END
> <rmsd>
0.694094062

$$$$
ZINC06315996


 22 23  0  0  0  0  0  0  0  0999 V2000
    0.8791    2.5118   -2.5632 C   0  0  0  0  0
    1.8477    1.5091   -2.6075 C   0  0  0  0  0
   -0.0995    2.4927   -1.5693 C   0  0  0  0  0
   -3.5506   -2.5629    0.5464 C   0  0  0  0  0
   -3.3817   -1.1922    0.7417 C   0  0  0  0  0
    0.8591    0.4682   -0.6643 C   0  0  0  0  0
   -2.7439   -0.9407   -1.5750 C   0  0  0  0  0
    1.8377    0.4873   -1.6581 C   0  0  0  0  0
   -0.1096    1.4709   -0.6199 C   0  0  0  0  0
   -3.3161   -3.1226   -0.7096 C   0  0  0  0  0
   -2.9784   -0.3811   -0.3190 C   0  0  0  0  0
   -2.9128   -2.3115   -1.7703 C   0  0  0  0  0
    2.8601   -0.5706   -1.7057 C   0  0  0  0  0
   -4.7886   -4.9085   -1.2555 C   0  0  0  0  0
   -1.1115    1.4511    0.3968 N   0  0  0  0  0
    2.8291   -1.5025   -0.8174 O   0  0  0  0  0
    3.7519   -0.5293   -2.6338 O   0  0  0  0  0
   -3.5987    1.7260    1.0600 O   0  0  0  0  0
   -2.9595    2.0148   -1.3498 O   0  0  0  0  0
   -3.4902   -4.4653   -0.8671 O   0  0  0  0  0
   -2.7670    1.3586   -0.0709 S   0  0  0  0  0
   -2.5853   -3.0369   -3.4905 Br  0  0  0  0  0
  1  2  1  0  0  0
  3  9  1  0  0  0
  4 10  1  0  0  0
  5 11  1  0  0  0
  6  8  1  0  0  0
  7 12  1  0  0  0
  8 13  1  0  0  0
  9 15  1  0  0  0
 10 20  1  0  0  0
 12 22  1  0  0  0
 13 16  1  0  0  0
 14 20  1  0  0  0
 21 11  1  0  0  0
 21 15  1  0  0  0
  1  3  2  0  0  0
  2  8  2  0  0  0
  4  5  2  0  0  0
  6  9  2  0  0  0
  7 11  2  0  0  0
 10 12  2  0  0  0
 13 17  2  0  0  0
 21 18  2  0  0  0
 21 19  2  0  0  0
M  CHG  1  16  -1
M  END
> <rmsd>
0.518780231

$$$$
ZINC41091794


 22 23  0  0  0  0  0  0  0  0999 V2000
    0.8863    2.5207   -2.5536 C   0  0  0  0  0
    1.8538    1.5170   -2.6005 C   0  0  0  0  0
   -0.0942    2.4985   -1.5615 C   0  0  0  0  0
   -3.3857   -1.1758    0.7397 C   0  0  0  0  0
   -3.5596   -2.5478    0.5587 C   0  0  0  0  0
    0.8603    0.4688   -0.6637 C   0  0  0  0  0
   -2.9196   -2.3230   -1.7602 C   0  0  0  0  0
    1.8408    0.4910   -1.6556 C   0  0  0  0  0
   -0.1072    1.4725   -0.6167 C   0  0  0  0  0
   -2.7458   -0.9508   -1.5791 C   0  0  0  0  0
   -2.9789   -0.3773   -0.3292 C   0  0  0  0  0
   -3.3266   -3.1215   -0.6912 C   0  0  0  0  0
    2.8620   -0.5679   -1.7059 C   0  0  0  0  0
   -2.1342   -0.8632   -3.8756 C   0  0  0  0  0
   -1.1110    1.4495    0.3981 N   0  0  0  0  0
    2.8282   -1.5037   -0.8218 O   0  0  0  0  0
    3.7556   -0.5236   -2.6322 O   0  0  0  0  0
   -3.5991    1.7245    1.0579 O   0  0  0  0  0
   -2.9551    2.0231   -1.3494 O   0  0  0  0  0
   -2.3483   -0.1897   -2.6368 O   0  0  0  0  0
   -2.7658    1.3610   -0.0730 S   0  0  0  0  0
   -3.5608   -4.9806   -0.9359 Br  0  0  0  0  0
  1  2  1  0  0  0
  3  9  1  0  0  0
  4 11  1  0  0  0
  5 12  1  0  0  0
  6  8  1  0  0  0
  7 10  1  0  0  0
  8 13  1  0  0  0
  9 15  1  0  0  0
 10 20  1  0  0  0
 12 22  1  0  0  0
 13 16  1  0  0  0
 14 20  1  0  0  0
 21 11  1  0  0  0
 21 15  1  0  0  0
  1  3  2  0  0  0
  2  8  2  0  0  0
  4  5  2  0  0  0
  6  9  2  0  0  0
  7 12  2  0  0  0
 10 11  2  0  0  0
 13 17  2  0  0  0
 21 18  2  0  0  0
 21 19  2  0  0  0
M  CHG  1  16  -1
M  END
> <rmsd>
0.514650881

$$$$
ZINC07053757


 22 23  0  0  0  0  0  0  0  0999 V2000
    0.8861    2.5205   -2.5533 C   0  0  0  0  0
    1.8534    1.5167   -2.6003 C   0  0  0  0  0
   -0.0944    2.4984   -1.5612 C   0  0  0  0  0
   -2.9153   -2.3225   -1.7605 C   0  0  0  0  0
   -3.3223   -3.1218   -0.6923 C   0  0  0  0  0
    0.8596    0.4684   -0.6637 C   0  0  0  0  0
   -3.3868   -1.1763    0.7388 C   0  0  0  0  0
    1.8401    0.4906   -1.6556 C   0  0  0  0  0
   -0.1077    1.4723   -0.6166 C   0  0  0  0  0
   -2.7440   -0.9500   -1.5791 C   0  0  0  0  0
   -2.9798   -0.3770   -0.3294 C   0  0  0  0  0
   -3.5580   -2.5487    0.5574 C   0  0  0  0  0
    2.8611   -0.5686   -1.7061 C   0  0  0  0  0
   -2.1284   -0.8622   -3.8745 C   0  0  0  0  0
   -1.1116    1.4492    0.3982 N   0  0  0  0  0
    2.8271   -1.5045   -0.8221 O   0  0  0  0  0
    3.7547   -0.5243   -2.6323 O   0  0  0  0  0
   -3.5996    1.7246    1.0580 O   0  0  0  0  0
   -2.9554    2.0235   -1.3493 O   0  0  0  0  0
   -2.3451   -0.1888   -2.6362 O   0  0  0  0  0
   -2.7663    1.3612   -0.0730 S   0  0  0  0  0
   -4.1075   -3.6323    2.0047 Br  0  0  0  0  0
  1  2  1  0  0  0
  3  9  1  0  0  0
  4 10  1  0  0  0
  5 12  1  0  0  0
  6  8  1  0  0  0
  7 11  1  0  0  0
  8 13  1  0  0  0
  9 15  1  0  0  0
 10 20  1  0  0  0
 12 22  1  0  0  0
 13 16  1  0  0  0
 14 20  1  0  0  0
 21 11  1  0  0  0
 21 15  1  0  0  0
  1  3  2  0  0  0
  2  8  2  0  0  0
  4  5  2  0  0  0
  6  9  2  0  0  0
  7 12  2  0  0  0
 10 11  2  0  0  0
 13 17  2  0  0  0
 21 18  2  0  0  0
 21 19  2  0  0  0
M  CHG  1  16  -1
M  END
> <rmsd>
0.515782416

$$$$
ZINC16926074


 27 29  0  0  0  0  0  0  0  0999 V2000
    1.3156   -1.3414    1.6521 C   0  0  0  0  0
    2.2261   -1.5079    0.6087 C   0  0  0  0  0
   -3.3328   -1.0953    0.5285 C   0  0  0  0  0
   -4.1297   -1.5530   -1.7060 C   0  0  0  0  0
    0.3890   -0.2996    1.6097 C   0  0  0  0  0
   -3.5109   -2.4367    0.8667 C   0  0  0  0  0
   -4.3079   -2.8944   -1.3677 C   0  0  0  0  0
    1.2836    0.4094   -0.5196 C   0  0  0  0  0
    2.2101   -0.6325   -0.4772 C   0  0  0  0  0
   -3.6424   -0.6534   -0.7579 C   0  0  0  0  0
    0.3731    0.5758    0.5239 C   0  0  0  0  0
   -3.9984   -3.3363   -0.0814 C   0  0  0  0  0
   -3.5808    1.7497   -0.1554 C   0  0  0  0  0
   -3.1649    1.1209   -2.4083 C   0  0  0  0  0
    3.1718   -0.8083   -1.5778 C   0  0  0  0  0
   -0.7227    2.5905   -0.5164 C   0  0  0  0  0
   -3.1955    3.0964   -0.7216 C   0  0  0  0  0
   -1.8537    3.5462   -0.1670 C   0  0  0  0  0
   -3.4580    0.7306   -1.1071 N   0  0  0  0  0
   -0.5670    1.6328    0.4816 N   0  0  0  0  0
    3.1361    0.0131   -2.5689 O   0  0  0  0  0
   -3.9688    1.6508    1.0065 O   0  0  0  0  0
   -2.9196    0.4371   -3.3910 O   0  0  0  0  0
    4.0168   -1.7780   -1.5132 O   0  0  0  0  0
   -0.0742    2.7008   -1.5516 O   0  0  0  0  0
   -4.1722   -4.6451    0.2489 O   0  0  0  0  0
   -3.1077    2.8721   -2.5075 S   0  0  0  0  0
  1  2  1  0  0  0
  3 10  1  0  0  0
  4  7  1  0  0  0
  5 11  1  0  0  0
  6 12  1  0  0  0
  8  9  1  0  0  0
  9 15  1  0  0  0
 10 19  1  0  0  0
 11 20  1  0  0  0
 12 26  1  0  0  0
 13 19  1  0  0  0
 14 19  1  0  0  0
 14 27  1  0  0  0
 15 21  1  0  0  0
 16 20  1  0  0  0
 17 13  1  0  0  0
 17 18  1  0  0  0
 17 27  1  0  0  0
 18 16  1  0  0  0
  1  5  2  0  0  0
  2  9  2  0  0  0
  3  6  2  0  0  0
  4 10  2  0  0  0
  7 12  2  0  0  0
  8 11  2  0  0  0
 13 22  2  0  0  0
 14 23  2  0  0  0
 15 24  2  0  0  0
 16 25  2  0  0  0
M  CHG  1  21  -1
M  END
> <rmsd>
0.329539329

$$$$
ZINC16922842


 27 29  0  0  0  0  0  0  0  0999 V2000
   -4.0015   -3.3366   -0.0757 C   0  0  0  0  0
   -3.5143   -2.4358    0.8713 C   0  0  0  0  0
   -4.3082   -2.8969   -1.3635 C   0  0  0  0  0
   -3.3339   -1.0953    0.5306 C   0  0  0  0  0
   -4.1278   -1.5565   -1.7042 C   0  0  0  0  0
    0.3869   -0.3019    1.6172 C   0  0  0  0  0
    1.3119   -1.3448    1.6627 C   0  0  0  0  0
    1.2857    0.4024   -0.5120 C   0  0  0  0  0
    2.2108   -0.6406   -0.4664 C   0  0  0  0  0
   -3.6406   -0.6556   -0.7573 C   0  0  0  0  0
    0.3737    0.5717    0.5297 C   0  0  0  0  0
    2.2239   -1.5142    0.6210 C   0  0  0  0  0
   -3.5776    1.7486   -0.1588 C   0  0  0  0  0
   -3.1583    1.1153   -2.4100 C   0  0  0  0  0
    3.1664   -0.8060   -1.5760 C   0  0  0  0  0
   -0.7181    2.5856   -0.5162 C   0  0  0  0  0
   -3.1899    3.0938   -0.7268 C   0  0  0  0  0
   -1.8487    3.5432   -0.1706 C   0  0  0  0  0
   -3.4543    0.7276   -1.1086 N   0  0  0  0  0
   -0.5652    1.6296    0.4839 N   0  0  0  0  0
    3.1198    0.0219   -2.5602 O   0  0  0  0  0
   -3.9679    1.6520    1.0025 O   0  0  0  0  0
   -2.9119    0.4295   -3.3910 O   0  0  0  0  0
    4.0141   -1.7729   -1.5226 O   0  0  0  0  0
   -0.0675    2.6935   -1.5503 O   0  0  0  0  0
    3.1201   -2.5390    0.6834 O   0  0  0  0  0
   -3.0991    2.8662   -2.5120 S   0  0  0  0  0
  1  2  1  0  0  0
  3  5  1  0  0  0
  4 10  1  0  0  0
  6 11  1  0  0  0
  7 12  1  0  0  0
  8  9  1  0  0  0
  9 15  1  0  0  0
 10 19  1  0  0  0
 11 20  1  0  0  0
 12 26  1  0  0  0
 13 19  1  0  0  0
 14 19  1  0  0  0
 14 27  1  0  0  0
 15 21  1  0  0  0
 16 20  1  0  0  0
 17 13  1  0  0  0
 17 18  1  0  0  0
 17 27  1  0  0  0
 18 16  1  0  0  0
  1  3  2  0  0  0
  2  4  2  0  0  0
  5 10  2  0  0  0
  6  7  2  0  0  0
  8 11  2  0  0  0
  9 12  2  0  0  0
 13 22  2  0  0  0
 14 23  2  0  0  0
 15 24  2  0  0  0
 16 25  2  0  0  0
M  CHG  1  21  -1
M  END
> <rmsd>
0.330512464

$$$$
ZINC06033985


 28 29  0  0  0  0  0  0  0  0999 V2000
   -2.8745   -2.7348   -1.6254 C   0  0  0  0  0
    1.4031   -1.1448    1.3424 C   0  0  0  0  0
   -3.4336   -3.3020   -0.4803 C   0  0  0  0  0
    2.2029   -1.2368    0.2032 C   0  0  0  0  0
   -3.8465   -1.0948    0.4115 C   0  0  0  0  0
    1.1012    0.7019   -0.7267 C   0  0  0  0  0
   -2.8013   -1.3475   -1.7520 C   0  0  0  0  0
    0.4524   -0.1295    1.4469 C   0  0  0  0  0
   -3.2873   -0.5276   -0.7336 C   0  0  0  0  0
    0.3014    0.7938    0.4124 C   0  0  0  0  0
   -3.9196   -2.4820    0.5381 C   0  0  0  0  0
    2.0520   -0.3135   -0.8313 C   0  0  0  0  0
   -3.6565    1.8257    0.0762 C   0  0  0  0  0
   -0.9282    2.8173   -0.4381 C   0  0  0  0  0
   -2.1957   -0.7674   -2.9890 C   0  0  0  0  0
   -0.3916   -0.0561    2.6779 C   0  0  0  0  0
   -3.4067    3.2434   -0.4123 C   0  0  0  0  0
   -2.0357    3.7484    0.0284 C   0  0  0  0  0
   -3.2207    0.8807   -0.8435 N   0  0  0  0  0
   -0.6578    1.8293    0.4997 N   0  0  0  0  0
   -4.4883   -3.0596    1.7039 N   0  0  0  0  0
    2.8657   -0.4076   -1.9910 N   0  0  0  0  0
   -4.5440   -4.3096    1.7980 O   0  0  0  0  0
    3.7145   -1.3288   -2.0651 O   0  0  0  0  0
   -4.2095    1.6263    1.1540 O   0  0  0  0  0
   -0.3702    3.0036   -1.5156 O   0  0  0  0  0
   -4.9194   -2.3043    2.6086 O   0  0  0  0  0
    2.7138    0.4327   -2.9104 O   0  0  0  0  0
  1  7  1  0  0  0
  2  8  1  0  0  0
  3 11  1  0  0  0
  4 12  1  0  0  0
  5  9  1  0  0  0
  6 10  1  0  0  0
  9 19  1  0  0  0
 10 20  1  0  0  0
 11 21  1  0  0  0
 12 22  1  0  0  0
 13 19  1  0  0  0
 14 20  1  0  0  0
 15  7  1  0  0  0
 16  8  1  0  0  0
 17 13  1  0  0  0
 17 18  1  0  0  0
 18 14  1  0  0  0
 21 23  1  0  0  0
 22 24  1  0  0  0
  1  3  2  0  0  0
  2  4  2  0  0  0
  5 11  2  0  0  0
  6 12  2  0  0  0
  7  9  2  0  0  0
  8 10  2  0  0  0
 13 25  2  0  0  0
 14 26  2  0  0  0
 21 27  2  0  0  0
 22 28  2  0  0  0
M  CHG  4  21   1  22   1  23  -1  24  -1
M  END
> <rmsd>
0.508534908

$$$$
ZINC06033985


 28 29  0  0  0  0  0  0  0  0999 V2000
    1.4026   -1.1446    1.3424 C   0  0  0  0  0
   -2.8752   -2.7346   -1.6251 C   0  0  0  0  0
    2.2024   -1.2367    0.2034 C   0  0  0  0  0
   -3.4342   -3.3016   -0.4797 C   0  0  0  0  0
    1.1010    0.7020   -0.7269 C   0  0  0  0  0
   -3.8467   -1.0942    0.4116 C   0  0  0  0  0
    0.4519   -0.1292    1.4468 C   0  0  0  0  0
   -2.8019   -1.3474   -1.7520 C   0  0  0  0  0
    0.3011    0.7941    0.4121 C   0  0  0  0  0
   -3.2876   -0.5273   -0.7337 C   0  0  0  0  0
    2.0517   -0.3134   -0.8312 C   0  0  0  0  0
   -3.9200   -2.4814    0.5386 C   0  0  0  0  0
   -0.9283    2.8178   -0.4385 C   0  0  0  0  0
   -3.6565    1.8261    0.0761 C   0  0  0  0  0
   -0.3923   -0.0556    2.6776 C   0  0  0  0  0
   -2.1966   -0.7677   -2.9891 C   0  0  0  0  0
   -2.0358    3.7486    0.0282 C   0  0  0  0  0
   -3.4069    3.2439   -0.4124 C   0  0  0  0  0
   -0.6580    1.8296    0.4992 N   0  0  0  0  0
   -3.2210    0.8811   -0.8437 N   0  0  0  0  0
    2.8657   -0.4077   -1.9908 N   0  0  0  0  0
   -4.4884   -3.0588    1.7046 N   0  0  0  0  0
    3.7144   -1.3289   -2.0647 O   0  0  0  0  0
   -4.5442   -4.3088    1.7989 O   0  0  0  0  0
   -0.3705    3.0039   -1.5162 O   0  0  0  0  0
   -4.2096    1.6266    1.1537 O   0  0  0  0  0
    2.7140    0.4327   -2.9103 O   0  0  0  0  0
   -4.9192   -2.3033    2.6092 O   0  0  0  0  0
  1  7  1  0  0  0
  2  8  1  0  0  0
  3 11  1  0  0  0
  4 12  1  0  0  0
  5  9  1  0  0  0
  6 10  1  0  0  0
  9 19  1  0  0  0
 10 20  1  0  0  0
 11 21  1  0  0  0
 12 22  1  0  0  0
 13 19  1  0  0  0
 14 20  1  0  0  0
 15  7  1  0  0  0
 16  8  1  0  0  0
 17 13  1  0  0  0
 17 18  1  0  0  0
 18 14  1  0  0  0
 21 23  1  0  0  0
 22 24  1  0  0  0
  1  3  2  0  0  0
  2  4  2  0  0  0
  5 11  2  0  0  0
  6 12  2  0  0  0
  7  9  2  0  0  0
  8 10  2  0  0  0
 13 25  2  0  0  0
 14 26  2  0  0  0
 21 27  2  0  0  0
 22 28  2  0  0  0
M  CHG  4  21   1  22   1  23  -1  24  -1
M  END
> <rmsd>
0.508212805

$$$$
ZINC59294215


 28 29  0  0  0  0  0  0  0  0999 V2000
   -3.3016   -2.0978   -0.2504 C   0  0  0  0  0
   -5.6052   -1.4230   -0.5244 C   0  0  0  0  0
    0.5127    0.3511   -1.0952 C   0  0  0  0  0
    1.7934   -0.0996   -1.4145 C   0  0  0  0  0
   -3.0081   -0.8621    0.3261 C   0  0  0  0  0
   -5.3117   -0.1872    0.0521 C   0  0  0  0  0
    2.6867    1.0904    0.4890 C   0  0  0  0  0
   -4.6001   -2.3783   -0.6757 C   0  0  0  0  0
    0.3188    1.1715    0.0162 C   0  0  0  0  0
    2.8805    0.2700   -0.6224 C   0  0  0  0  0
   -4.0132    0.0932    0.4774 C   0  0  0  0  0
    1.4058    1.5411    0.8083 C   0  0  0  0  0
   -2.0362    1.8601   -0.5542 C   0  0  0  0  0
   -4.6118   -4.8699   -0.3049 C   0  0  0  0  0
   -4.0659   -3.9396   -2.5793 C   0  0  0  0  0
   -6.4025   -3.8994   -1.7308 C   0  0  0  0  0
   -4.4501    2.5988   -0.8337 C   0  0  0  0  0
   -3.0369    3.5758    1.0140 C   0  0  0  0  0
    1.3380    3.7493    1.6887 C   0  0  0  0  0
   -4.9139   -3.6996   -1.2916 C   0  0  0  0  0
   -3.3135    2.3433    0.1554 C   0  0  0  0  0
   -0.9873    1.6209    0.3271 N   0  0  0  0  0
    4.1841   -0.1902   -0.9467 N   0  0  0  0  0
    4.3362   -0.9284   -1.9499 O   0  0  0  0  0
   -2.0115    1.7200   -1.7753 O   0  0  0  0  0
    5.1484    0.1542   -0.2214 O   0  0  0  0  0
    1.2373    2.3424    1.8979 O   0  0  0  0  0
   -3.7246    1.3044    1.0437 O   0  0  0  0  0
  1  8  1  0  0  0
  2  6  1  0  0  0
  3  9  1  0  0  0
  4 10  1  0  0  0
  5 11  1  0  0  0
  7 12  1  0  0  0
  9 22  1  0  0  0
 10 23  1  0  0  0
 11 28  1  0  0  0
 12 27  1  0  0  0
 13 22  1  0  0  0
 14 20  1  0  0  0
 15 20  1  0  0  0
 16 20  1  0  0  0
 17 21  1  0  0  0
 18 21  1  0  0  0
 19 27  1  0  0  0
 20  8  1  0  0  0
 21 13  1  0  0  0
 21 28  1  0  0  0
 23 24  1  0  0  0
  1  5  2  0  0  0
  2  8  2  0  0  0
  3  4  2  0  0  0
  6 11  2  0  0  0
  7 10  2  0  0  0
  9 12  2  0  0  0
 13 25  2  0  0  0
 23 26  2  0  0  0
M  CHG  2  23   1  24  -1
M  END
> <rmsd>
0.617195487

$$$$
ZINC36293984


 26 28  0  0  0  0  0  0  0  0999 V2000
    0.8391    2.4637   -2.6182 C   0  0  0  0  0
   -3.5513   -2.5642    0.5424 C   0  0  0  0  0
   -2.9137   -2.3108   -1.7741 C   0  0  0  0  0
   -4.4268   -5.2488   -0.1618 C   0  0  0  0  0
   -2.7197   -5.2111   -1.8710 C   0  0  0  0  0
    1.8173    1.4697   -2.6485 C   0  0  0  0  0
   -0.1291    2.4589   -1.6141 C   0  0  0  0  0
   -3.3830   -1.1936    0.7387 C   0  0  0  0  0
   -2.7454   -0.9401   -1.5778 C   0  0  0  0  0
   -4.5939   -6.6195   -0.3589 C   0  0  0  0  0
   -2.8868   -6.5818   -2.0681 C   0  0  0  0  0
    0.8588    0.4661   -0.6709 C   0  0  0  0  0
   -3.3166   -3.1229   -0.7140 C   0  0  0  0  0
   -3.4897   -4.5446   -0.9178 C   0  0  0  0  0
    1.8271    0.4709   -1.6749 C   0  0  0  0  0
   -0.1194    1.4601   -0.6405 C   0  0  0  0  0
   -2.9800   -0.3815   -0.3213 C   0  0  0  0  0
   -3.8240   -7.2860   -1.3121 C   0  0  0  0  0
    2.8595   -0.5778   -1.7077 C   0  0  0  0  0
   -1.1181    1.4548    0.3942 N   0  0  0  0  0
    2.8468   -1.4884   -0.7971 O   0  0  0  0  0
    3.7415   -0.5500   -2.6456 O   0  0  0  0  0
   -3.5950    1.7233    1.0634 O   0  0  0  0  0
   -2.9677    2.0157   -1.3491 O   0  0  0  0  0
   -2.7715    1.3342   -0.0754 S   0  0  0  0  0
   -4.0294   -8.9773   -1.5546 Cl  0  0  0  0  0
  1  6  1  0  0  0
  2 13  1  0  0  0
  3  9  1  0  0  0
  4 14  1  0  0  0
  5 11  1  0  0  0
  7 16  1  0  0  0
  8 17  1  0  0  0
 10 18  1  0  0  0
 12 15  1  0  0  0
 13 14  1  0  0  0
 15 19  1  0  0  0
 16 20  1  0  0  0
 18 26  1  0  0  0
 19 21  1  0  0  0
 25 17  1  0  0  0
 25 20  1  0  0  0
  1  7  2  0  0  0
  2  8  2  0  0  0
  3 13  2  0  0  0
  4 10  2  0  0  0
  5 14  2  0  0  0
  6 15  2  0  0  0
  9 17  2  0  0  0
 11 18  2  0  0  0
 12 16  2  0  0  0
 19 22  2  0  0  0
 25 23  2  0  0  0
 25 24  2  0  0  0
M  CHG  1  21  -1
M  END
> <rmsd>
0.520277321

$$$$
ZINC72043248


 26 28  0  0  0  0  0  0  0  0999 V2000
   -2.7499    1.6803   -5.0647 C   0  0  0  0  0
   -3.9652    1.2957   -4.4983 C   0  0  0  0  0
   -1.5501    1.2304   -4.5134 C   0  0  0  0  0
   -2.8541   -3.0974   -0.7754 C   0  0  0  0  0
   -2.8333   -2.5814    0.5203 C   0  0  0  0  0
   -3.9808    0.4615   -3.3805 C   0  0  0  0  0
   -1.5657    0.3961   -3.3957 C   0  0  0  0  0
   -2.8362   -2.2336   -1.8705 C   0  0  0  0  0
   -0.0509    2.7617   -1.3153 C   0  0  0  0  0
   -2.7946   -1.2015    0.7210 C   0  0  0  0  0
    1.0034    2.8772   -2.2213 C   0  0  0  0  0
    0.9982    0.8147   -0.3427 C   0  0  0  0  0
   -2.7810    0.0116   -2.8291 C   0  0  0  0  0
   -2.7976   -0.8538   -1.6699 C   0  0  0  0  0
    2.0525    0.9302   -1.2487 C   0  0  0  0  0
   -0.0535    1.7304   -0.3761 C   0  0  0  0  0
   -2.7767   -0.3378   -0.3741 C   0  0  0  0  0
    2.0551    1.9615   -2.1880 C   0  0  0  0  0
    3.1469   -0.0573   -1.1822 C   0  0  0  0  0
   -1.1403    1.6124    0.5584 N   0  0  0  0  0
    3.0505   -1.1317   -1.8825 O   0  0  0  0  0
    4.1569    0.1923   -0.4262 O   0  0  0  0  0
   -3.6814    1.6675    0.9994 O   0  0  0  0  0
   -2.8616    2.0853   -1.3357 O   0  0  0  0  0
   -2.7288    1.3872   -0.0655 S   0  0  0  0  0
    3.3435    2.1438   -3.3232 Cl  0  0  0  0  0
  1  2  1  0  0  0
  3  7  1  0  0  0
  4  5  1  0  0  0
  6 13  1  0  0  0
  8 14  1  0  0  0
  9 16  1  0  0  0
 10 17  1  0  0  0
 11 18  1  0  0  0
 12 15  1  0  0  0
 13 14  1  0  0  0
 15 19  1  0  0  0
 16 20  1  0  0  0
 18 26  1  0  0  0
 19 21  1  0  0  0
 25 17  1  0  0  0
 25 20  1  0  0  0
  1  3  2  0  0  0
  2  6  2  0  0  0
  4  8  2  0  0  0
  5 10  2  0  0  0
  7 13  2  0  0  0
  9 11  2  0  0  0
 12 16  2  0  0  0
 14 17  2  0  0  0
 15 18  2  0  0  0
 19 22  2  0  0  0
 25 23  2  0  0  0
 25 24  2  0  0  0
M  CHG  1  21  -1
M  END
> <rmsd>
0.707391143

$$$$
ZINC72043248


 26 28  0  0  0  0  0  0  0  0999 V2000
   -3.2313    1.5838   -5.0603 C   0  0  0  0  0
   -4.4148    1.3041   -4.3773 C   0  0  0  0  0
   -2.0242    1.0466   -4.6131 C   0  0  0  0  0
   -3.3083   -3.1183   -0.6878 C   0  0  0  0  0
   -3.1266   -2.5899    0.5903 C   0  0  0  0  0
   -4.3914    0.4873   -3.2469 C   0  0  0  0  0
   -2.0007    0.2298   -3.4827 C   0  0  0  0  0
   -3.3250   -2.2720   -1.7965 C   0  0  0  0  0
   -0.1185    2.4922   -1.5966 C   0  0  0  0  0
   -2.9618   -1.2152    0.7597 C   0  0  0  0  0
    0.8526    2.5126   -2.5978 C   0  0  0  0  0
    0.8613    0.4798   -0.6870 C   0  0  0  0  0
   -3.1842   -0.0499   -2.7995 C   0  0  0  0  0
   -3.1603   -0.8973   -1.6271 C   0  0  0  0  0
    1.8324    0.5002   -1.6881 C   0  0  0  0  0
   -0.1142    1.4758   -0.6413 C   0  0  0  0  0
   -2.9786   -0.3689   -0.3489 C   0  0  0  0  0
    1.8280    1.5165   -2.6435 C   0  0  0  0  0
    2.8477   -0.5705   -1.7034 C   0  0  0  0  0
   -1.1151    1.4560    0.3913 N   0  0  0  0  0
    2.6029   -1.6421   -2.3709 O   0  0  0  0  0
    3.9402   -0.3929   -1.0484 O   0  0  0  0  0
   -3.5919    1.7184    1.0628 O   0  0  0  0  0
   -2.9632    2.0414   -1.3455 O   0  0  0  0  0
   -2.7675    1.3504   -0.0795 S   0  0  0  0  0
    3.0154    1.5820   -3.8957 Cl  0  0  0  0  0
  1  2  1  0  0  0
  3  7  1  0  0  0
  4  5  1  0  0  0
  6 13  1  0  0  0
  8 14  1  0  0  0
  9 16  1  0  0  0
 10 17  1  0  0  0
 11 18  1  0  0  0
 12 15  1  0  0  0
 13 14  1  0  0  0
 15 19  1  0  0  0
 16 20  1  0  0  0
 18 26  1  0  0  0
 19 21  1  0  0  0
 25 17  1  0  0  0
 25 20  1  0  0  0
  1  3  2  0  0  0
  2  6  2  0  0  0
  4  8  2  0  0  0
  5 10  2  0  0  0
  7 13  2  0  0  0
  9 11  2  0  0  0
 12 16  2  0  0  0
 14 17  2  0  0  0
 15 18  2  0  0  0
 19 22  2  0  0  0
 25 23  2  0  0  0
 25 24  2  0  0  0
M  CHG  1  21  -1
M  END
> <rmsd>
0.525531769

$$$$
ZINC07053269


 22 23  0  0  0  0  0  0  0  0999 V2000
    1.6888    2.5997   -1.3917 C   0  0  0  0  0
    0.5385    2.6344   -0.6037 C   0  0  0  0  0
    2.3084    1.3809   -1.6680 C   0  0  0  0  0
   -3.2133   -2.5928    0.7245 C   0  0  0  0  0
   -3.1426   -3.1570   -0.5491 C   0  0  0  0  0
    0.6276    0.2315   -0.3678 C   0  0  0  0  0
   -2.8047   -0.9628   -1.5024 C   0  0  0  0  0
    0.0079    1.4503   -0.0916 C   0  0  0  0  0
    1.7779    0.1969   -1.1561 C   0  0  0  0  0
   -3.0797   -1.2135    0.8847 C   0  0  0  0  0
   -2.8754   -0.3986   -0.2287 C   0  0  0  0  0
   -2.9383   -2.3420   -1.6626 C   0  0  0  0  0
   -3.3638   -1.5948    3.2149 C   0  0  0  0  0
   -1.1693    1.4862    0.7153 N   0  0  0  0  0
    2.4086   -1.0434   -1.4384 N   0  0  0  0  0
    3.4419   -1.0521   -2.1504 O   0  0  0  0  0
    1.9159   -2.0973   -0.9681 O   0  0  0  0  0
   -3.7358    1.7846    0.8755 O   0  0  0  0  0
   -2.6484    1.9298   -1.3819 O   0  0  0  0  0
   -3.1529   -0.6840    2.1379 O   0  0  0  0  0
   -2.7062    1.3544   -0.0520 S   0  0  0  0  0
   -2.8446   -3.1069   -3.3881 Br  0  0  0  0  0
  1  3  1  0  0  0
  2  8  1  0  0  0
  4 10  1  0  0  0
  5 12  1  0  0  0
  6  9  1  0  0  0
  7 11  1  0  0  0
  8 14  1  0  0  0
  9 15  1  0  0  0
 10 20  1  0  0  0
 12 22  1  0  0  0
 13 20  1  0  0  0
 15 16  1  0  0  0
 21 11  1  0  0  0
 21 14  1  0  0  0
  1  2  2  0  0  0
  3  9  2  0  0  0
  4  5  2  0  0  0
  6  8  2  0  0  0
  7 12  2  0  0  0
 10 11  2  0  0  0
 15 17  2  0  0  0
 21 18  2  0  0  0
 21 19  2  0  0  0
M  CHG  2  15   1  16  -1
M  END
> <rmsd>
0.552968323

$$$$
ZINC01414619


 27 29  0  0  0  0  0  0  0  0999 V2000
    5.8128    0.5662   -2.6010 C   0  0  0  0  0
    4.7416   -0.7389   -4.3290 C   0  0  0  0  0
   -3.3602   -2.5915    0.3940 C   0  0  0  0  0
   -3.0825   -2.1441   -1.9639 C   0  0  0  0  0
    7.0133    0.5190   -3.3096 C   0  0  0  0  0
    5.9422   -0.7861   -5.0377 C   0  0  0  0  0
   -3.2261   -1.2304    0.6680 C   0  0  0  0  0
   -2.9485   -0.7830   -1.6899 C   0  0  0  0  0
    4.6768   -0.0628   -3.1107 C   0  0  0  0  0
   -3.2884   -3.0483   -0.9220 C   0  0  0  0  0
    7.0780   -0.1571   -4.5279 C   0  0  0  0  0
   -3.0203   -0.3261   -0.3739 C   0  0  0  0  0
    1.3611    1.3802   -2.1461 C   0  0  0  0  0
    0.2871    2.0976   -2.8997 C   0  0  0  0  0
   -0.3869    1.6347   -0.9672 C   0  0  0  0  0
    2.6742    1.0730   -2.7272 C   0  0  0  0  0
    3.4250   -0.0133   -2.3720 C   0  0  0  0  0
    0.8985    1.1194   -0.9699 N   0  0  0  0  0
   -0.7937    2.2128   -2.0596 N   0  0  0  0  0
   -3.4240   -4.4245   -1.1995 N   0  0  0  0  0
   -1.1764    1.5120    0.1915 N   0  0  0  0  0
    3.1313   -0.9170   -1.5062 O   0  0  0  0  0
    0.4213    2.4792   -4.0459 O   0  0  0  0  0
   -3.5261    1.6562    1.2310 O   0  0  0  0  0
   -3.2363    2.1221   -1.2242 O   0  0  0  0  0
    8.2307   -0.2015   -5.2087 F   0  0  0  0  0
   -2.8504    1.3998   -0.0268 S   0  0  0  0  0
  1  5  1  0  0  0
  2  9  1  0  0  0
  3 10  1  0  0  0
  4  8  1  0  0  0
  6 11  1  0  0  0
  7 12  1  0  0  0
  9 17  1  0  0  0
 10 20  1  0  0  0
 11 26  1  0  0  0
 13 14  1  0  0  0
 13 16  1  0  0  0
 14 19  1  0  0  0
 15 18  1  0  0  0
 15 21  1  0  0  0
 17 22  1  0  0  0
 27 12  1  0  0  0
 27 21  1  0  0  0
  1  9  2  0  0  0
  2  6  2  0  0  0
  3  7  2  0  0  0
  4 10  2  0  0  0
  5 11  2  0  0  0
  8 12  2  0  0  0
 13 18  2  0  0  0
 14 23  2  0  0  0
 15 19  2  0  0  0
 16 17  2  0  0  0
 27 24  2  0  0  0
 27 25  2  0  0  0
M  CHG  1  22  -1
M  END
> <rmsd>
0.608676136

$$$$
ZINC16922937


 27 29  0  0  0  0  0  0  0  0999 V2000
   -3.8875   -3.3081   -0.2595 C   0  0  0  0  0
   -3.3949   -2.4432    0.7176 C   0  0  0  0  0
   -4.2900   -2.8057   -1.4971 C   0  0  0  0  0
   -3.3048   -1.0758    0.4573 C   0  0  0  0  0
   -4.1999   -1.4384   -1.7573 C   0  0  0  0  0
    2.2743   -1.1744    0.1948 C   0  0  0  0  0
    1.4231   -1.1353    1.2990 C   0  0  0  0  0
    1.1554    0.7540   -0.7360 C   0  0  0  0  0
   -3.7073   -0.5734   -0.7802 C   0  0  0  0  0
    0.3041    0.7930    0.3682 C   0  0  0  0  0
    2.1406   -0.2297   -0.8227 C   0  0  0  0  0
    0.4379   -0.1517    1.3857 C   0  0  0  0  0
   -3.7363    1.7879   -0.0279 C   0  0  0  0  0
   -3.4138    1.3228   -2.3353 C   0  0  0  0  0
   -0.9498    2.8048   -0.4819 C   0  0  0  0  0
   -3.4528    3.1860   -0.5254 C   0  0  0  0  0
   -2.1075    3.6737   -0.0134 C   0  0  0  0  0
   -3.6141    0.8376   -1.0485 N   0  0  0  0  0
   -0.6900    1.7975    0.4431 N   0  0  0  0  0
    3.0083   -0.2693   -1.9462 N   0  0  0  0  0
    3.8881   -1.1621   -2.0036 O   0  0  0  0  0
   -4.0541    1.5962    1.1437 O   0  0  0  0  0
   -3.1882    0.7154   -3.3714 O   0  0  0  0  0
   -0.3659    3.0142   -1.5399 O   0  0  0  0  0
    2.8711    0.5893   -2.8508 O   0  0  0  0  0
   -0.3837   -0.1309    2.4730 O   0  0  0  0  0
   -3.4524    3.0772   -2.3241 S   0  0  0  0  0
  1  2  1  0  0  0
  3  5  1  0  0  0
  4  9  1  0  0  0
  6 11  1  0  0  0
  7 12  1  0  0  0
  8 10  1  0  0  0
  9 18  1  0  0  0
 10 19  1  0  0  0
 11 20  1  0  0  0
 12 26  1  0  0  0
 13 18  1  0  0  0
 14 18  1  0  0  0
 14 27  1  0  0  0
 15 19  1  0  0  0
 16 13  1  0  0  0
 16 17  1  0  0  0
 16 27  1  0  0  0
 17 15  1  0  0  0
 20 21  1  0  0  0
  1  3  2  0  0  0
  2  4  2  0  0  0
  5  9  2  0  0  0
  6  7  2  0  0  0
  8 11  2  0  0  0
 10 12  2  0  0  0
 13 22  2  0  0  0
 14 23  2  0  0  0
 15 24  2  0  0  0
 20 25  2  0  0  0
M  CHG  2  20   1  21  -1
M  END
> <rmsd>
0.400678277

$$$$
ZINC32962073


 27 29  0  0  0  0  0  0  0  0999 V2000
   -2.4211   -2.2384   -1.8107 C   0  0  0  0  0
   -2.8516   -3.1014   -0.8029 C   0  0  0  0  0
    1.0215    2.8838   -2.1898 C   0  0  0  0  0
   -0.0378    2.7667   -1.2900 C   0  0  0  0  0
   -2.3836   -0.8628   -1.5823 C   0  0  0  0  0
    0.9958    0.8063   -0.3280 C   0  0  0  0  0
   -3.2073   -1.2131    0.6618 C   0  0  0  0  0
    2.0552    0.9234   -1.2279 C   0  0  0  0  0
   -3.2447   -2.5887    0.4334 C   0  0  0  0  0
    2.0681    1.9621   -2.1587 C   0  0  0  0  0
   -0.0507    1.7280   -0.3591 C   0  0  0  0  0
   -2.7767   -0.3503   -0.3461 C   0  0  0  0  0
    3.1493   -0.0645   -1.1737 C   0  0  0  0  0
    4.4364    1.2044   -4.9514 C   0  0  0  0  0
    5.3002    3.1209   -3.5953 C   0  0  0  0  0
    3.0392    1.4281   -4.3729 C   0  0  0  0  0
    3.9001    3.3424   -3.0256 C   0  0  0  0  0
    5.2440    2.5052   -4.9972 C   0  0  0  0  0
   -3.7065   -3.5120    1.5099 C   0  0  0  0  0
    6.6495    2.2545   -5.5380 C   0  0  0  0  0
    3.1219    2.0971   -3.0704 N   0  0  0  0  0
   -1.1354    1.6085    0.5616 N   0  0  0  0  0
    3.0533   -1.1305   -1.8871 O   0  0  0  0  0
    4.1598    0.1756   -0.4147 O   0  0  0  0  0
   -3.6861    1.6725    0.9984 O   0  0  0  0  0
   -2.8578    2.0602   -1.3390 O   0  0  0  0  0
   -2.7292    1.3952   -0.0566 S   0  0  0  0  0
  1  5  1  0  0  0
  2  9  1  0  0  0
  3 10  1  0  0  0
  4 11  1  0  0  0
  6  8  1  0  0  0
  7 12  1  0  0  0
  8 13  1  0  0  0
 10 21  1  0  0  0
 11 22  1  0  0  0
 13 23  1  0  0  0
 14 16  1  0  0  0
 14 18  1  0  0  0
 15 17  1  0  0  0
 15 18  1  0  0  0
 16 21  1  0  0  0
 17 21  1  0  0  0
 18 20  1  0  0  0
 19  9  1  0  0  0
 27 12  1  0  0  0
 27 22  1  0  0  0
  1  2  2  0  0  0
  3  4  2  0  0  0
  5 12  2  0  0  0
  6 11  2  0  0  0
  7  9  2  0  0  0
  8 10  2  0  0  0
 13 24  2  0  0  0
 27 25  2  0  0  0
 27 26  2  0  0  0
M  CHG  1  23  -1
M  END
> <rmsd>
0.706986606

$$$$
ZINC32962073


 27 29  0  0  0  0  0  0  0  0999 V2000
   -2.9069   -2.3073   -1.7776 C   0  0  0  0  0
   -3.3059   -3.1222   -0.7182 C   0  0  0  0  0
    0.8695    2.5241   -2.5705 C   0  0  0  0  0
   -0.1064    2.5008   -1.5741 C   0  0  0  0  0
   -2.7422   -0.9364   -1.5794 C   0  0  0  0  0
    0.8590    0.4764   -0.6760 C   0  0  0  0  0
   -3.3755   -1.1954    0.7378 C   0  0  0  0  0
    1.8348    0.4997   -1.6724 C   0  0  0  0  0
   -3.5403   -2.5663    0.5395 C   0  0  0  0  0
    1.8401    1.5235   -2.6196 C   0  0  0  0  0
   -0.1117    1.4770   -0.6268 C   0  0  0  0  0
   -2.9765   -0.3806   -0.3217 C   0  0  0  0  0
    2.8497   -0.5704   -1.7017 C   0  0  0  0  0
    3.8695    0.5505   -5.6058 C   0  0  0  0  0
    5.0024    2.4086   -4.3718 C   0  0  0  0  0
    2.5544    0.8898   -4.9042 C   0  0  0  0  0
    3.6833    2.7458   -3.6786 C   0  0  0  0  0
    4.7671    1.7833   -5.7507 C   0  0  0  0  0
   -3.9685   -3.4382    1.6712 C   0  0  0  0  0
    6.0920    1.4169   -6.4149 C   0  0  0  0  0
    2.8106    1.5650   -3.6277 N   0  0  0  0  0
   -1.1108    1.4534    0.3928 N   0  0  0  0  0
    2.6051   -1.6336   -2.3831 O   0  0  0  0  0
    3.9426   -0.4018   -1.0446 O   0  0  0  0  0
   -3.5965    1.7225    1.0635 O   0  0  0  0  0
   -2.9645    2.0174   -1.3476 O   0  0  0  0  0
   -2.7674    1.3590   -0.0705 S   0  0  0  0  0
  1  5  1  0  0  0
  2  9  1  0  0  0
  3 10  1  0  0  0
  4 11  1  0  0  0
  6  8  1  0  0  0
  7 12  1  0  0  0
  8 13  1  0  0  0
 10 21  1  0  0  0
 11 22  1  0  0  0
 13 23  1  0  0  0
 14 16  1  0  0  0
 14 18  1  0  0  0
 15 17  1  0  0  0
 15 18  1  0  0  0
 16 21  1  0  0  0
 17 21  1  0  0  0
 18 20  1  0  0  0
 19  9  1  0  0  0
 27 12  1  0  0  0
 27 22  1  0  0  0
  1  2  2  0  0  0
  3  4  2  0  0  0
  5 12  2  0  0  0
  6 11  2  0  0  0
  7  9  2  0  0  0
  8 10  2  0  0  0
 13 24  2  0  0  0
 27 25  2  0  0  0
 27 26  2  0  0  0
M  CHG  1  23  -1
M  END
> <rmsd>
0.525941312

$$$$
ZINC32962064


 27 29  0  0  0  0  0  0  0  0999 V2000
   -3.2444   -2.5881    0.4335 C   0  0  0  0  0
   -2.4207   -2.2377   -1.8105 C   0  0  0  0  0
    1.0208    2.8843   -2.1908 C   0  0  0  0  0
   -0.0385    2.7673   -1.2909 C   0  0  0  0  0
   -3.2074   -1.2126    0.6619 C   0  0  0  0  0
   -2.3838   -0.8621   -1.5822 C   0  0  0  0  0
    0.9954    0.8072   -0.3286 C   0  0  0  0  0
    2.0547    0.9241   -1.2285 C   0  0  0  0  0
   -2.8510   -3.1007   -0.8027 C   0  0  0  0  0
    2.0674    1.9627   -2.1596 C   0  0  0  0  0
   -0.0512    1.7289   -0.3597 C   0  0  0  0  0
   -2.7771   -0.3497   -0.3460 C   0  0  0  0  0
    3.1488   -0.0637   -1.1742 C   0  0  0  0  0
    4.4355    1.2045   -4.9524 C   0  0  0  0  0
    5.2993    3.1213   -3.5968 C   0  0  0  0  0
    3.0384    1.4283   -4.3738 C   0  0  0  0  0
    3.8992    3.3429   -3.0270 C   0  0  0  0  0
    5.2430    2.5053   -4.9986 C   0  0  0  0  0
   -2.8884   -4.5714   -1.0465 C   0  0  0  0  0
    6.6485    2.2546   -5.5394 C   0  0  0  0  0
    3.1211    2.0976   -3.0714 N   0  0  0  0  0
   -1.1358    1.6094    0.5611 N   0  0  0  0  0
    3.0528   -1.1299   -1.8874 O   0  0  0  0  0
    4.1594    0.1766   -0.4154 O   0  0  0  0  0
   -3.6864    1.6734    0.9981 O   0  0  0  0  0
   -2.8584    2.0606   -1.3394 O   0  0  0  0  0
   -2.7297    1.3960   -0.0569 S   0  0  0  0  0
  1  9  1  0  0  0
  2  6  1  0  0  0
  3 10  1  0  0  0
  4 11  1  0  0  0
  5 12  1  0  0  0
  7  8  1  0  0  0
  8 13  1  0  0  0
 10 21  1  0  0  0
 11 22  1  0  0  0
 13 23  1  0  0  0
 14 16  1  0  0  0
 14 18  1  0  0  0
 15 17  1  0  0  0
 15 18  1  0  0  0
 16 21  1  0  0  0
 17 21  1  0  0  0
 18 20  1  0  0  0
 19  9  1  0  0  0
 27 12  1  0  0  0
 27 22  1  0  0  0
  1  5  2  0  0  0
  2  9  2  0  0  0
  3  4  2  0  0  0
  6 12  2  0  0  0
  7 11  2  0  0  0
  8 10  2  0  0  0
 13 24  2  0  0  0
 27 25  2  0  0  0
 27 26  2  0  0  0
M  CHG  1  23  -1
M  END
> <rmsd>
0.707357824

$$$$
ZINC32962064


 27 29  0  0  0  0  0  0  0  0999 V2000
   -3.5399   -2.5657    0.5397 C   0  0  0  0  0
   -2.9065   -2.3066   -1.7774 C   0  0  0  0  0
    0.8687    2.5245   -2.5714 C   0  0  0  0  0
   -0.1070    2.5014   -1.5749 C   0  0  0  0  0
   -3.3756   -1.1949    0.7379 C   0  0  0  0  0
   -2.7423   -0.9357   -1.5792 C   0  0  0  0  0
    0.8586    0.4772   -0.6764 C   0  0  0  0  0
    1.8343    0.5003   -1.6730 C   0  0  0  0  0
   -3.3054   -3.1217   -0.7179 C   0  0  0  0  0
    1.8394    1.5240   -2.6204 C   0  0  0  0  0
   -0.1121    1.4778   -0.6274 C   0  0  0  0  0
   -2.9768   -0.3799   -0.3216 C   0  0  0  0  0
    2.8492   -0.5697   -1.7021 C   0  0  0  0  0
    3.8686    0.5504   -5.6065 C   0  0  0  0  0
    5.0015    2.4088   -4.3731 C   0  0  0  0  0
    2.5536    0.8898   -4.9049 C   0  0  0  0  0
    3.6825    2.7461   -3.6799 C   0  0  0  0  0
    4.7661    1.7832   -5.7518 C   0  0  0  0  0
   -3.4788   -4.5876   -0.9297 C   0  0  0  0  0
    6.0909    1.4167   -6.4161 C   0  0  0  0  0
    2.8099    1.5653   -3.6286 N   0  0  0  0  0
   -1.1112    1.4544    0.3923 N   0  0  0  0  0
    2.6046   -1.6331   -2.3833 O   0  0  0  0  0
    3.9422   -0.4009   -1.0451 O   0  0  0  0  0
   -3.5968    1.7235    1.0632 O   0  0  0  0  0
   -2.9651    2.0179   -1.3480 O   0  0  0  0  0
   -2.7678    1.3598   -0.0708 S   0  0  0  0  0
  1  9  1  0  0  0
  2  6  1  0  0  0
  3 10  1  0  0  0
  4 11  1  0  0  0
  5 12  1  0  0  0
  7  8  1  0  0  0
  8 13  1  0  0  0
 10 21  1  0  0  0
 11 22  1  0  0  0
 13 23  1  0  0  0
 14 16  1  0  0  0
 14 18  1  0  0  0
 15 17  1  0  0  0
 15 18  1  0  0  0
 16 21  1  0  0  0
 17 21  1  0  0  0
 18 20  1  0  0  0
 19  9  1  0  0  0
 27 12  1  0  0  0
 27 22  1  0  0  0
  1  5  2  0  0  0
  2  9  2  0  0  0
  3  4  2  0  0  0
  6 12  2  0  0  0
  7 11  2  0  0  0
  8 10  2  0  0  0
 13 24  2  0  0  0
 27 25  2  0  0  0
 27 26  2  0  0  0
M  CHG  1  23  -1
M  END
> <rmsd>
0.526240826

$$$$
ZINC32962099


 27 29  0  0  0  0  0  0  0  0999 V2000
   -3.5403   -2.5667    0.5398 C   0  0  0  0  0
   -2.9068   -2.3075   -1.7772 C   0  0  0  0  0
    0.8684    2.5239   -2.5708 C   0  0  0  0  0
   -0.1074    2.5006   -1.5745 C   0  0  0  0  0
   -3.3760   -1.1958    0.7381 C   0  0  0  0  0
   -2.7425   -0.9366   -1.5790 C   0  0  0  0  0
    0.8582    0.4764   -0.6759 C   0  0  0  0  0
    1.8340    0.4996   -1.6723 C   0  0  0  0  0
   -3.3056   -3.1226   -0.7178 C   0  0  0  0  0
    1.8391    1.5233   -2.6198 C   0  0  0  0  0
   -0.1125    1.4769   -0.6270 C   0  0  0  0  0
   -2.9772   -0.3807   -0.3213 C   0  0  0  0  0
    2.8490   -0.5704   -1.7015 C   0  0  0  0  0
    3.9942    3.4605   -5.6688 C   0  0  0  0  0
    3.2183    2.5632   -6.6317 C   0  0  0  0  0
    4.8309    2.6792   -4.6554 C   0  0  0  0  0
    2.1221    1.7185   -5.9852 C   0  0  0  0  0
    4.0661    2.2823   -3.3914 C   0  0  0  0  0
    2.6277    0.8085   -4.8678 C   0  0  0  0  0
   -3.4791   -4.5884   -0.9296 C   0  0  0  0  0
    2.8097    1.5646   -3.6281 N   0  0  0  0  0
   -1.1116    1.4536    0.3926 N   0  0  0  0  0
    2.6042   -1.6338   -2.3827 O   0  0  0  0  0
    3.9419   -0.4017   -1.0446 O   0  0  0  0  0
   -3.5973    1.7226    1.0634 O   0  0  0  0  0
   -2.9654    2.0171   -1.3477 O   0  0  0  0  0
   -2.7683    1.3588   -0.0706 S   0  0  0  0  0
  1  9  1  0  0  0
  2  6  1  0  0  0
  3 10  1  0  0  0
  4 11  1  0  0  0
  5 12  1  0  0  0
  7  8  1  0  0  0
  8 13  1  0  0  0
 10 21  1  0  0  0
 11 22  1  0  0  0
 13 23  1  0  0  0
 14 15  1  0  0  0
 14 16  1  0  0  0
 15 17  1  0  0  0
 16 18  1  0  0  0
 17 19  1  0  0  0
 18 21  1  0  0  0
 19 21  1  0  0  0
 20  9  1  0  0  0
 27 12  1  0  0  0
 27 22  1  0  0  0
  1  5  2  0  0  0
  2  9  2  0  0  0
  3  4  2  0  0  0
  6 12  2  0  0  0
  7 11  2  0  0  0
  8 10  2  0  0  0
 13 24  2  0  0  0
 27 25  2  0  0  0
 27 26  2  0  0  0
M  CHG  1  23  -1
M  END
> <rmsd>
0.526307166

$$$$
ZINC32962099


 27 29  0  0  0  0  0  0  0  0999 V2000
   -3.2447   -2.5891    0.4336 C   0  0  0  0  0
   -2.4211   -2.2385   -1.8105 C   0  0  0  0  0
    1.0202    2.8837   -2.1905 C   0  0  0  0  0
   -0.0390    2.7666   -1.2906 C   0  0  0  0  0
   -3.2078   -1.2135    0.6620 C   0  0  0  0  0
   -2.3842   -0.8630   -1.5821 C   0  0  0  0  0
    0.9950    0.8065   -0.3284 C   0  0  0  0  0
    2.0542    0.9235   -1.2283 C   0  0  0  0  0
   -2.8514   -3.1016   -0.8026 C   0  0  0  0  0
    2.0668    1.9621   -2.1594 C   0  0  0  0  0
   -0.0517    1.7281   -0.3595 C   0  0  0  0  0
   -2.7775   -0.3505   -0.3457 C   0  0  0  0  0
    3.1484   -0.0643   -1.1741 C   0  0  0  0  0
    4.3369    4.1165   -4.9698 C   0  0  0  0  0
    3.7266    3.1801   -6.0117 C   0  0  0  0  0
    5.1347    3.3832   -3.8913 C   0  0  0  0  0
    2.6449    2.2415   -5.4808 C   0  0  0  0  0
    4.2893    2.9049   -2.7094 C   0  0  0  0  0
    3.1144    1.3524   -4.3312 C   0  0  0  0  0
   -2.8887   -4.5722   -1.0465 C   0  0  0  0  0
    3.1206    2.0970   -3.0713 N   0  0  0  0  0
   -1.1362    1.6086    0.5613 N   0  0  0  0  0
    3.0523   -1.1305   -1.8873 O   0  0  0  0  0
    4.1589    0.1760   -0.4154 O   0  0  0  0  0
   -3.6869    1.6725    0.9984 O   0  0  0  0  0
   -2.8589    2.0599   -1.3391 O   0  0  0  0  0
   -2.7302    1.3950   -0.0567 S   0  0  0  0  0
  1  9  1  0  0  0
  2  6  1  0  0  0
  3 10  1  0  0  0
  4 11  1  0  0  0
  5 12  1  0  0  0
  7  8  1  0  0  0
  8 13  1  0  0  0
 10 21  1  0  0  0
 11 22  1  0  0  0
 13 23  1  0  0  0
 14 15  1  0  0  0
 14 16  1  0  0  0
 15 17  1  0  0  0
 16 18  1  0  0  0
 17 19  1  0  0  0
 18 21  1  0  0  0
 19 21  1  0  0  0
 20  9  1  0  0  0
 27 12  1  0  0  0
 27 22  1  0  0  0
  1  5  2  0  0  0
  2  9  2  0  0  0
  3  4  2  0  0  0
  6 12  2  0  0  0
  7 11  2  0  0  0
  8 10  2  0  0  0
 13 24  2  0  0  0
 27 25  2  0  0  0
 27 26  2  0  0  0
M  CHG  1  23  -1
M  END
> <rmsd>
0.707266271

$$$$
ZINC13733992


 27 29  0  0  0  0  0  0  0  0999 V2000
   -1.3964   -2.4052   -0.6409 C   0  0  0  0  0
    1.8603   -0.2507   -0.4591 C   0  0  0  0  0
   -0.7927   -2.0487   -1.8501 C   0  0  0  0  0
    0.8201    0.2449    0.3192 C   0  0  0  0  0
   -2.7963   -0.8822   -2.5728 C   0  0  0  0  0
    1.3111    1.3567   -2.1238 C   0  0  0  0  0
   -4.7564   -1.5831    0.4318 C   0  0  0  0  0
   -3.4255   -1.2298   -1.3609 C   0  0  0  0  0
   -4.7133   -0.9856   -0.8068 C   0  0  0  0  0
   -2.7125   -1.9818   -0.4248 C   0  0  0  0  0
    2.1171    0.3103   -1.7051 C   0  0  0  0  0
   -1.4800   -1.2989   -2.8025 C   0  0  0  0  0
    0.0723    1.2943   -0.1901 C   0  0  0  0  0
   -3.8005    2.0655   -0.1222 C   0  0  0  0  0
   -5.8368   -0.2117   -1.4519 C   0  0  0  0  0
   -2.6965    3.0061   -0.5710 C   0  0  0  0  0
   -6.0065    1.1891   -0.8690 C   0  0  0  0  0
   -1.5528    3.0827    0.4312 C   0  0  0  0  0
    0.2917    1.8650   -1.3958 N   0  0  0  0  0
   -3.5450   -2.1812    0.6534 N   0  0  0  0  0
   -0.9613    1.7777    0.5975 N   0  0  0  0  0
   -4.8315    2.0104   -1.0485 N   0  0  0  0  0
    3.1704   -0.1730   -2.5211 N   0  0  0  0  0
    3.8785   -1.1233   -2.1049 O   0  0  0  0  0
   -3.7625    1.4399    0.9337 O   0  0  0  0  0
    3.3698    0.3605   -3.6406 O   0  0  0  0  0
   -0.7026   -0.8769   -4.2812 Cl  0  0  0  0  0
  1  3  1  0  0  0
  2 11  1  0  0  0
  4 13  1  0  0  0
  5 12  1  0  0  0
  6 19  1  0  0  0
  7 20  1  0  0  0
  8  9  1  0  0  0
  8 10  1  0  0  0
 10 20  1  0  0  0
 11 23  1  0  0  0
 12 27  1  0  0  0
 13 21  1  0  0  0
 14 22  1  0  0  0
 15  9  1  0  0  0
 15 17  1  0  0  0
 16 14  1  0  0  0
 16 18  1  0  0  0
 17 22  1  0  0  0
 18 21  1  0  0  0
 23 24  1  0  0  0
  1 10  2  0  0  0
  2  4  2  0  0  0
  3 12  2  0  0  0
  5  8  2  0  0  0
  6 11  2  0  0  0
  7  9  2  0  0  0
 13 19  2  0  0  0
 14 25  2  0  0  0
 23 26  2  0  0  0
M  CHG  2  23   1  24  -1
M  END
> <rmsd>
0.298528314

$$$$
ZINC07499996


 29 32  0  0  0  0  0  0  0  0999 V2000
   -3.3520   -3.1045   -0.5303 C   0  0  0  0  0
   -3.9680    4.4615   -3.2470 C   0  0  0  0  0
   -4.8461    4.6322   -2.1592 C   0  0  0  0  0
   -3.6140   -2.2836   -1.6271 C   0  0  0  0  0
   -2.7343   -2.5771    0.6038 C   0  0  0  0  0
   -2.9621    3.4920   -3.2121 C   0  0  0  0  0
   -4.7355    3.8364   -1.0156 C   0  0  0  0  0
   -3.2582   -0.9354   -1.5900 C   0  0  0  0  0
   -2.3784   -1.2290    0.6410 C   0  0  0  0  0
    2.8282    1.3035   -0.9705 C   0  0  0  0  0
    2.2953    2.4748   -0.4326 C   0  0  0  0  0
    0.7311    0.1697   -0.5793 C   0  0  0  0  0
   -2.8693    2.7130   -2.0753 C   0  0  0  0  0
   -3.7380    2.8811   -0.9998 C   0  0  0  0  0
   -2.6404   -0.4081   -0.4559 C   0  0  0  0  0
    0.1981    1.3410   -0.0414 C   0  0  0  0  0
    2.0462    0.1508   -1.0439 C   0  0  0  0  0
    0.9802    2.4937    0.0320 C   0  0  0  0  0
   -1.9108    1.6422   -1.7841 C   0  0  0  0  0
   -3.4042    1.9348    0.0687 C   0  0  0  0  0
   -2.2530    1.0589   -0.4156 C   0  0  0  0  0
    0.6414    3.8507    1.9554 C   0  0  0  0  0
   -1.1116    1.3466    0.4162 N   0  0  0  0  0
    2.5893   -1.0412   -1.5924 N   0  0  0  0  0
    3.7742   -1.0358   -2.0048 O   0  0  0  0  0
   -0.9930    1.3236   -2.5173 O   0  0  0  0  0
   -3.9478    1.9076    1.1572 O   0  0  0  0  0
    1.8694   -2.0673   -1.6491 O   0  0  0  0  0
    0.4780    3.6484    0.5533 O   0  0  0  0  0
  1  4  1  0  0  0
  2  3  1  0  0  0
  5  9  1  0  0  0
  6 13  1  0  0  0
  7 14  1  0  0  0
  8 15  1  0  0  0
 10 17  1  0  0  0
 11 18  1  0  0  0
 12 16  1  0  0  0
 13 19  1  0  0  0
 14 20  1  0  0  0
 16 23  1  0  0  0
 17 24  1  0  0  0
 18 29  1  0  0  0
 21 15  1  0  0  0
 21 19  1  0  0  0
 21 20  1  0  0  0
 21 23  1  0  0  0
 22 29  1  0  0  0
 24 25  1  0  0  0
  1  5  2  0  0  0
  2  6  2  0  0  0
  3  7  2  0  0  0
  4  8  2  0  0  0
  9 15  2  0  0  0
 10 11  2  0  0  0
 12 17  2  0  0  0
 13 14  2  0  0  0
 16 18  2  0  0  0
 19 26  2  0  0  0
 20 27  2  0  0  0
 24 28  2  0  0  0
M  CHG  2  24   1  25  -1
M  END
> <rmsd>
0.554304063

$$$$
ZINC64843339


 27 29  0  0  0  0  0  0  0  0999 V2000
   -3.2815   -2.5836    0.4538 C   0  0  0  0  0
   -2.4381   -2.2568   -1.7865 C   0  0  0  0  0
   -3.2316   -1.2070    0.6733 C   0  0  0  0  0
   -2.3883   -0.8802   -1.5670 C   0  0  0  0  0
    1.0051    0.7851   -0.3100 C   0  0  0  0  0
    0.0116    2.7192   -1.2738 C   0  0  0  0  0
   -2.8847   -3.1084   -0.7762 C   0  0  0  0  0
    2.0574    0.9145   -1.2096 C   0  0  0  0  0
   -0.0412    1.7005   -0.3362 C   0  0  0  0  0
   -2.7850   -0.3553   -0.3370 C   0  0  0  0  0
    2.0161    1.9683   -2.1084 C   0  0  0  0  0
   -2.9369   -4.5437   -1.0048 C   0  0  0  0  0
    3.1644   -0.0565   -1.1799 C   0  0  0  0  0
    4.5718    1.6724   -4.8090 C   0  0  0  0  0
    4.9705    2.9771   -4.1495 C   0  0  0  0  0
    3.1272    1.4941   -4.3561 C   0  0  0  0  0
    4.3012    2.8817   -2.7832 C   0  0  0  0  0
   -2.7413   -5.4425    0.1815 C   0  0  0  0  0
    1.0169    2.8772   -2.1638 N   0  0  0  0  0
    3.0782    2.1056   -3.0223 N   0  0  0  0  0
   -1.1335    1.5941    0.5728 N   0  0  0  0  0
    3.0776   -1.1161   -1.9058 O   0  0  0  0  0
   -3.1251   -5.0783   -2.0996 O   0  0  0  0  0
    4.1811    0.1872   -0.4288 O   0  0  0  0  0
   -3.6898    1.6837    0.9857 O   0  0  0  0  0
   -2.8356    2.0494   -1.3458 O   0  0  0  0  0
   -2.7252    1.3914   -0.0581 S   0  0  0  0  0
  1  7  1  0  0  0
  2  4  1  0  0  0
  3 10  1  0  0  0
  5  9  1  0  0  0
  6 19  1  0  0  0
  7 12  1  0  0  0
  8 11  1  0  0  0
  8 13  1  0  0  0
  9 21  1  0  0  0
 11 20  1  0  0  0
 13 22  1  0  0  0
 14 15  1  0  0  0
 14 16  1  0  0  0
 15 17  1  0  0  0
 16 20  1  0  0  0
 17 20  1  0  0  0
 18 12  1  0  0  0
 27 10  1  0  0  0
 27 21  1  0  0  0
  1  3  2  0  0  0
  2  7  2  0  0  0
  4 10  2  0  0  0
  5  8  2  0  0  0
  6  9  2  0  0  0
 11 19  2  0  0  0
 12 23  2  0  0  0
 13 24  2  0  0  0
 27 25  2  0  0  0
 27 26  2  0  0  0
M  CHG  1  22  -1
M  END
> <rmsd>
0.687706172

$$$$
ZINC64843339


 27 29  0  0  0  0  0  0  0  0999 V2000
   -3.5718   -2.5590    0.5598 C   0  0  0  0  0
   -2.9209   -2.3226   -1.7549 C   0  0  0  0  0
   -3.3963   -1.1882    0.7491 C   0  0  0  0  0
   -2.7454   -0.9518   -1.5656 C   0  0  0  0  0
    0.8688    0.4574   -0.6602 C   0  0  0  0  0
   -0.0602    2.4527   -1.5617 C   0  0  0  0  0
   -3.3341   -3.1261   -0.6922 C   0  0  0  0  0
    1.8383    0.4950   -1.6562 C   0  0  0  0  0
   -0.1022    1.4512   -0.6052 C   0  0  0  0  0
   -2.9831   -0.3846   -0.3135 C   0  0  0  0  0
    1.7933    1.5392   -2.5659 C   0  0  0  0  0
   -3.5173   -4.5553   -0.8894 C   0  0  0  0  0
    2.8657   -0.5589   -1.7125 C   0  0  0  0  0
    4.0527    1.0166   -5.4872 C   0  0  0  0  0
    4.6105    2.2933   -4.8911 C   0  0  0  0  0
    2.6479    0.9562   -4.8986 C   0  0  0  0  0
    4.0677    2.2647   -3.4669 C   0  0  0  0  0
   -3.2800   -5.4540    0.2895 C   0  0  0  0  0
    0.8658    2.5225   -2.5441 N   0  0  0  0  0
    2.7719    1.5837   -3.5771 N   0  0  0  0  0
   -1.1088    1.4398    0.4034 N   0  0  0  0  0
    2.6300   -1.6162   -2.4081 O   0  0  0  0  0
   -3.8483   -5.0853   -1.9521 O   0  0  0  0  0
    3.9644   -0.3872   -1.0638 O   0  0  0  0  0
   -3.6004    1.7326    1.0511 O   0  0  0  0  0
   -2.9444    2.0059   -1.3560 O   0  0  0  0  0
   -2.7637    1.3550   -0.0727 S   0  0  0  0  0
  1  7  1  0  0  0
  2  4  1  0  0  0
  3 10  1  0  0  0
  5  9  1  0  0  0
  6 19  1  0  0  0
  7 12  1  0  0  0
  8 11  1  0  0  0
  8 13  1  0  0  0
  9 21  1  0  0  0
 11 20  1  0  0  0
 13 22  1  0  0  0
 14 15  1  0  0  0
 14 16  1  0  0  0
 15 17  1  0  0  0
 16 20  1  0  0  0
 17 20  1  0  0  0
 18 12  1  0  0  0
 27 10  1  0  0  0
 27 21  1  0  0  0
  1  3  2  0  0  0
  2  7  2  0  0  0
  4 10  2  0  0  0
  5  8  2  0  0  0
  6  9  2  0  0  0
 11 19  2  0  0  0
 12 23  2  0  0  0
 13 24  2  0  0  0
 27 25  2  0  0  0
 27 26  2  0  0  0
M  CHG  1  22  -1
M  END
> <rmsd>
0.509018064

$$$$
ZINC36378487


 27 29  0  0  0  0  0  0  0  0999 V2000
   -4.8309   -0.7717   -1.0077 C   0  0  0  0  0
   -2.7969   -1.2163    0.2180 C   0  0  0  0  0
   -5.0424   -2.1426   -1.1541 C   0  0  0  0  0
   -3.0083   -2.5873    0.0717 C   0  0  0  0  0
   -3.7081   -0.3085   -0.3216 C   0  0  0  0  0
   -4.1311   -3.0504   -0.6145 C   0  0  0  0  0
    4.0208    0.5191    0.8714 C   0  0  0  0  0
    3.1980    0.2608   -0.1732 C   0  0  0  0  0
    0.9746    1.0017   -1.1424 C   0  0  0  0  0
    5.3253   -0.0913    1.0430 C   0  0  0  0  0
    6.1668   -0.2964    0.0317 C   0  0  0  0  0
    3.6540   -0.6137   -1.3401 C   0  0  0  0  0
   -2.1470    1.6111   -0.7620 C   0  0  0  0  0
    3.6811    1.4871    2.0036 C   0  0  0  0  0
    0.2444    1.9422   -0.1397 C   0  0  0  0  0
    1.2910    1.4519    0.8845 C   0  0  0  0  0
    5.8541    0.0802   -1.3791 C   0  0  0  0  0
   -3.4792    1.1766   -0.1628 C   0  0  0  0  0
    1.9631    0.8268   -0.2394 N   0  0  0  0  0
   -3.5033    1.5798    1.2218 N   0  0  0  0  0
   -1.1267    1.5393    0.1636 N   0  0  0  0  0
    3.9766   -1.7856   -1.0190 O   0  0  0  0  0
    0.8000    0.6266   -2.2779 O   0  0  0  0  0
    3.6430   -0.0390   -2.4582 O   0  0  0  0  0
   -2.0350    2.0095   -1.9197 O   0  0  0  0  0
   -4.3389   -4.3878   -0.7570 O   0  0  0  0  0
    2.3852    2.7053    1.5844 S   0  0  0  0  0
  1  5  1  0  0  0
  2  4  1  0  0  0
  3  6  1  0  0  0
  6 26  1  0  0  0
  7 10  1  0  0  0
  8 12  1  0  0  0
  8 19  1  0  0  0
  9 19  1  0  0  0
 12 22  1  0  0  0
 13 21  1  0  0  0
 14  7  1  0  0  0
 14 27  1  0  0  0
 15  9  1  0  0  0
 15 16  1  0  0  0
 15 21  1  0  0  0
 16 19  1  0  0  0
 16 27  1  0  0  0
 17 11  1  0  0  0
 18  5  1  0  0  0
 18 13  1  0  0  0
 18 20  1  0  0  0
  1  3  2  0  0  0
  2  5  2  0  0  0
  4  6  2  0  0  0
  7  8  2  0  0  0
  9 23  2  0  0  0
 10 11  2  0  0  0
 12 24  2  0  0  0
 13 25  2  0  0  0
M  CHG  1  22  -1
M  END
> <rmsd>
0.399475396

$$$$
ZINC35397422


 27 29  0  0  0  0  0  0  0  0999 V2000
   -3.5699   -2.5604    0.5584 C   0  0  0  0  0
   -2.9159   -2.3218   -1.7551 C   0  0  0  0  0
   -3.3972   -1.1895    0.7487 C   0  0  0  0  0
   -2.7432   -0.9508   -1.5649 C   0  0  0  0  0
    0.8682    0.4569   -0.6595 C   0  0  0  0  0
   -0.0604    2.4522   -1.5614 C   0  0  0  0  0
    1.8378    0.4942   -1.6554 C   0  0  0  0  0
   -3.3291   -3.1266   -0.6935 C   0  0  0  0  0
   -0.1026    1.4508   -0.6046 C   0  0  0  0  0
   -2.9839   -0.3846   -0.3130 C   0  0  0  0  0
    1.7929    1.5383   -2.5652 C   0  0  0  0  0
    2.8651   -0.5599   -1.7115 C   0  0  0  0  0
    3.9554    3.4836   -5.6038 C   0  0  0  0  0
    3.1822    2.5885   -6.5710 C   0  0  0  0  0
    4.7897    2.6999   -4.5903 C   0  0  0  0  0
    2.0846    1.7419   -5.9294 C   0  0  0  0  0
    4.0216    2.2997   -3.3292 C   0  0  0  0  0
    2.5874    0.8292   -4.8130 C   0  0  0  0  0
   -3.5116   -4.5926   -0.8967 C   0  0  0  0  0
    0.8656    2.5217   -2.5438 N   0  0  0  0  0
    2.7661    1.5824   -3.5709 N   0  0  0  0  0
   -1.1094    1.4397    0.4038 N   0  0  0  0  0
    2.6292   -1.6171   -2.4070 O   0  0  0  0  0
    3.9637   -0.3881   -1.0628 O   0  0  0  0  0
   -3.6010    1.7329    1.0513 O   0  0  0  0  0
   -2.9448    2.0058   -1.3558 O   0  0  0  0  0
   -2.7643    1.3551   -0.0723 S   0  0  0  0  0
  1  8  1  0  0  0
  2  4  1  0  0  0
  3 10  1  0  0  0
  5  9  1  0  0  0
  6 20  1  0  0  0
  7 11  1  0  0  0
  7 12  1  0  0  0
  9 22  1  0  0  0
 11 21  1  0  0  0
 12 23  1  0  0  0
 13 14  1  0  0  0
 13 15  1  0  0  0
 14 16  1  0  0  0
 15 17  1  0  0  0
 16 18  1  0  0  0
 17 21  1  0  0  0
 18 21  1  0  0  0
 19  8  1  0  0  0
 27 10  1  0  0  0
 27 22  1  0  0  0
  1  3  2  0  0  0
  2  8  2  0  0  0
  4 10  2  0  0  0
  5  7  2  0  0  0
  6  9  2  0  0  0
 11 20  2  0  0  0
 12 24  2  0  0  0
 27 25  2  0  0  0
 27 26  2  0  0  0
M  CHG  1  23  -1
M  END
> <rmsd>
0.510401368

$$$$
ZINC35397422


 27 29  0  0  0  0  0  0  0  0999 V2000
   -3.2791   -2.5849    0.4522 C   0  0  0  0  0
   -2.4333   -2.2553   -1.7867 C   0  0  0  0  0
   -3.2323   -1.2083    0.6726 C   0  0  0  0  0
   -2.3863   -0.8788   -1.5664 C   0  0  0  0  0
    1.0044    0.7847   -0.3099 C   0  0  0  0  0
    0.0112    2.7189   -1.2738 C   0  0  0  0  0
    2.0566    0.9140   -1.2096 C   0  0  0  0  0
   -2.8796   -3.1084   -0.7774 C   0  0  0  0  0
   -0.0417    1.7003   -0.3360 C   0  0  0  0  0
   -2.7859   -0.3553   -0.3368 C   0  0  0  0  0
    2.0155    1.9678   -2.1083 C   0  0  0  0  0
    3.1637   -0.0572   -1.1799 C   0  0  0  0  0
    4.2932    4.1271   -4.9087 C   0  0  0  0  0
    3.6855    3.1930   -5.9540 C   0  0  0  0  0
    5.0881    3.3915   -3.8296 C   0  0  0  0  0
    2.6022    2.2535   -5.4277 C   0  0  0  0  0
    4.2395    2.9111   -2.6508 C   0  0  0  0  0
    3.0685    1.3621   -4.2787 C   0  0  0  0  0
   -2.9276   -4.5802   -1.0125 C   0  0  0  0  0
    1.0163    2.8768   -2.1638 N   0  0  0  0  0
    3.0716    2.1043   -3.0173 N   0  0  0  0  0
   -1.1341    1.5940    0.5729 N   0  0  0  0  0
    3.0767   -1.1167   -1.9058 O   0  0  0  0  0
    4.1804    0.1865   -0.4288 O   0  0  0  0  0
   -3.6904    1.6839    0.9860 O   0  0  0  0  0
   -2.8362    2.0495   -1.3456 O   0  0  0  0  0
   -2.7258    1.3915   -0.0578 S   0  0  0  0  0
  1  8  1  0  0  0
  2  4  1  0  0  0
  3 10  1  0  0  0
  5  9  1  0  0  0
  6 20  1  0  0  0
  7 11  1  0  0  0
  7 12  1  0  0  0
  9 22  1  0  0  0
 11 21  1  0  0  0
 12 23  1  0  0  0
 13 14  1  0  0  0
 13 15  1  0  0  0
 14 16  1  0  0  0
 15 17  1  0  0  0
 16 18  1  0  0  0
 17 21  1  0  0  0
 18 21  1  0  0  0
 19  8  1  0  0  0
 27 10  1  0  0  0
 27 22  1  0  0  0
  1  3  2  0  0  0
  2  8  2  0  0  0
  4 10  2  0  0  0
  5  7  2  0  0  0
  6  9  2  0  0  0
 11 20  2  0  0  0
 12 24  2  0  0  0
 27 25  2  0  0  0
 27 26  2  0  0  0
M  CHG  1  23  -1
M  END
> <rmsd>
0.68940866

$$$$
ZINC35397343


 27 29  0  0  0  0  0  0  0  0999 V2000
   -2.4337   -2.2555   -1.7865 C   0  0  0  0  0
   -2.8801   -3.1083   -0.7771 C   0  0  0  0  0
   -2.3863   -0.8789   -1.5662 C   0  0  0  0  0
    1.0046    0.7849   -0.3096 C   0  0  0  0  0
   -3.2320   -1.2080    0.6728 C   0  0  0  0  0
    0.0115    2.7191   -1.2734 C   0  0  0  0  0
    2.0569    0.9142   -1.2093 C   0  0  0  0  0
   -3.2793   -2.5846    0.4526 C   0  0  0  0  0
   -0.0415    1.7004   -0.3357 C   0  0  0  0  0
   -2.7855   -0.3551   -0.3366 C   0  0  0  0  0
    2.0158    1.9680   -2.1079 C   0  0  0  0  0
    3.1640   -0.0570   -1.1795 C   0  0  0  0  0
    4.3911    1.2150   -4.8961 C   0  0  0  0  0
    5.2518    3.1290   -3.5344 C   0  0  0  0  0
    2.9925    1.4379   -4.3208 C   0  0  0  0  0
    3.8502    3.3496   -2.9677 C   0  0  0  0  0
    5.1989    2.5159   -4.9375 C   0  0  0  0  0
   -3.7582   -3.4972    1.5309 C   0  0  0  0  0
    6.6058    2.2659   -5.4752 C   0  0  0  0  0
    1.0168    2.8771   -2.1634 N   0  0  0  0  0
    3.0719    2.1045   -3.0168 N   0  0  0  0  0
   -1.1339    1.5941    0.5732 N   0  0  0  0  0
    3.0770   -1.1165   -1.9056 O   0  0  0  0  0
    4.1807    0.1865   -0.4284 O   0  0  0  0  0
   -3.6901    1.6839    0.9861 O   0  0  0  0  0
   -2.8358    2.0496   -1.3454 O   0  0  0  0  0
   -2.7255    1.3916   -0.0576 S   0  0  0  0  0
  1  3  1  0  0  0
  2  8  1  0  0  0
  4  9  1  0  0  0
  5 10  1  0  0  0
  6 20  1  0  0  0
  7 11  1  0  0  0
  7 12  1  0  0  0
  9 22  1  0  0  0
 11 21  1  0  0  0
 12 23  1  0  0  0
 13 15  1  0  0  0
 13 17  1  0  0  0
 14 16  1  0  0  0
 14 17  1  0  0  0
 15 21  1  0  0  0
 16 21  1  0  0  0
 17 19  1  0  0  0
 18  8  1  0  0  0
 27 10  1  0  0  0
 27 22  1  0  0  0
  1  2  2  0  0  0
  3 10  2  0  0  0
  4  7  2  0  0  0
  5  8  2  0  0  0
  6  9  2  0  0  0
 11 20  2  0  0  0
 12 24  2  0  0  0
 27 25  2  0  0  0
 27 26  2  0  0  0
M  CHG  1  23  -1
M  END
> <rmsd>
0.689228177

$$$$
ZINC35397343


 27 29  0  0  0  0  0  0  0  0999 V2000
   -2.9166   -2.3218   -1.7549 C   0  0  0  0  0
   -3.3299   -3.1264   -0.6932 C   0  0  0  0  0
   -2.7434   -0.9508   -1.5648 C   0  0  0  0  0
    0.8683    0.4570   -0.6597 C   0  0  0  0  0
   -3.3970   -1.1891    0.7489 C   0  0  0  0  0
   -0.0603    2.4523   -1.5613 C   0  0  0  0  0
    1.8378    0.4944   -1.6556 C   0  0  0  0  0
   -3.5701   -2.5601    0.5587 C   0  0  0  0  0
   -0.1025    1.4509   -0.6046 C   0  0  0  0  0
   -2.9836   -0.3845   -0.3129 C   0  0  0  0  0
    1.7930    1.5385   -2.5653 C   0  0  0  0  0
    2.8652   -0.5598   -1.7118 C   0  0  0  0  0
    3.8301    0.5730   -5.5488 C   0  0  0  0  0
    4.9594    2.4286   -4.3077 C   0  0  0  0  0
    2.5132    0.9104   -4.8497 C   0  0  0  0  0
    3.6385    2.7637   -3.6169 C   0  0  0  0  0
    4.7276    1.8065   -5.6886 C   0  0  0  0  0
   -4.0136   -3.4211    1.6932 C   0  0  0  0  0
    6.0543    1.4419   -6.3504 C   0  0  0  0  0
    0.8657    2.5220   -2.5438 N   0  0  0  0  0
    2.7660    1.5826   -3.5709 N   0  0  0  0  0
   -1.1092    1.4397    0.4039 N   0  0  0  0  0
    2.6292   -1.6170   -2.4075 O   0  0  0  0  0
    3.9638   -0.3882   -1.0632 O   0  0  0  0  0
   -3.6007    1.7329    1.0516 O   0  0  0  0  0
   -2.9446    2.0060   -1.3556 O   0  0  0  0  0
   -2.7640    1.3551   -0.0721 S   0  0  0  0  0
  1  3  1  0  0  0
  2  8  1  0  0  0
  4  9  1  0  0  0
  5 10  1  0  0  0
  6 20  1  0  0  0
  7 11  1  0  0  0
  7 12  1  0  0  0
  9 22  1  0  0  0
 11 21  1  0  0  0
 12 23  1  0  0  0
 13 15  1  0  0  0
 13 17  1  0  0  0
 14 16  1  0  0  0
 14 17  1  0  0  0
 15 21  1  0  0  0
 16 21  1  0  0  0
 17 19  1  0  0  0
 18  8  1  0  0  0
 27 10  1  0  0  0
 27 22  1  0  0  0
  1  2  2  0  0  0
  3 10  2  0  0  0
  4  7  2  0  0  0
  5  8  2  0  0  0
  6  9  2  0  0  0
 11 20  2  0  0  0
 12 24  2  0  0  0
 27 25  2  0  0  0
 27 26  2  0  0  0
M  CHG  1  23  -1
M  END
> <rmsd>
0.510097921

$$$$
ZINC35397450


 27 29  0  0  0  0  0  0  0  0999 V2000
    1.0042    0.7853   -0.3096 C   0  0  0  0  0
   -2.6563   -2.6142    0.5085 C   0  0  0  0  0
   -3.0533   -2.2255   -1.8427 C   0  0  0  0  0
    0.0110    2.7197   -1.2732 C   0  0  0  0  0
    2.0565    0.9148   -1.2091 C   0  0  0  0  0
   -2.8777   -3.1082   -0.7770 C   0  0  0  0  0
   -2.6105   -1.2375    0.7284 C   0  0  0  0  0
   -3.0074   -0.8488   -1.6229 C   0  0  0  0  0
   -0.0420    1.7008   -0.3358 C   0  0  0  0  0
   -2.7860   -0.3549   -0.3373 C   0  0  0  0  0
    2.0156    1.9688   -2.1077 C   0  0  0  0  0
    3.1637   -0.0563   -1.1795 C   0  0  0  0  0
    5.1714    2.7010   -3.9562 C   0  0  0  0  0
    4.3704    1.9496   -5.0003 C   0  0  0  0  0
    4.4857    2.3020   -2.6545 C   0  0  0  0  0
    2.9419    2.0752   -4.4829 C   0  0  0  0  0
   -2.9257   -4.5803   -1.0123 C   0  0  0  0  0
   -2.3701   -0.7456    2.1188 C   0  0  0  0  0
   -3.1993    0.0663   -2.7886 C   0  0  0  0  0
    1.0165    2.8779   -2.1630 N   0  0  0  0  0
    3.0777    2.1063   -3.0215 N   0  0  0  0  0
   -1.1345    1.5943    0.5730 N   0  0  0  0  0
    3.0767   -1.1157   -1.9056 O   0  0  0  0  0
    4.1802    0.1872   -0.4282 O   0  0  0  0  0
   -3.6908    1.6840    0.9856 O   0  0  0  0  0
   -2.8363    2.0502   -1.3457 O   0  0  0  0  0
   -2.7260    1.3919   -0.0581 S   0  0  0  0  0
  1  9  1  0  0  0
  2  6  1  0  0  0
  3  8  1  0  0  0
  4 20  1  0  0  0
  5 11  1  0  0  0
  5 12  1  0  0  0
  7 10  1  0  0  0
  9 22  1  0  0  0
 11 21  1  0  0  0
 12 23  1  0  0  0
 13 14  1  0  0  0
 13 15  1  0  0  0
 14 16  1  0  0  0
 15 21  1  0  0  0
 16 21  1  0  0  0
 17  6  1  0  0  0
 18  7  1  0  0  0
 19  8  1  0  0  0
 27 10  1  0  0  0
 27 22  1  0  0  0
  1  5  2  0  0  0
  2  7  2  0  0  0
  3  6  2  0  0  0
  4  9  2  0  0  0
  8 10  2  0  0  0
 11 20  2  0  0  0
 12 24  2  0  0  0
 27 25  2  0  0  0
 27 26  2  0  0  0
M  CHG  1  23  -1
M  END
> <rmsd>
0.689706802

$$$$
ZINC35397450


 27 29  0  0  0  0  0  0  0  0999 V2000
    0.8678    0.4573   -0.6599 C   0  0  0  0  0
   -2.9488   -2.6376    0.5569 C   0  0  0  0  0
   -3.5349   -2.2443   -1.7537 C   0  0  0  0  0
   -0.0608    2.4528   -1.5613 C   0  0  0  0  0
    1.8374    0.4948   -1.6558 C   0  0  0  0  0
   -3.3277   -3.1266   -0.6933 C   0  0  0  0  0
   -2.7771   -1.2663    0.7468 C   0  0  0  0  0
   -3.3632   -0.8730   -1.5638 C   0  0  0  0  0
   -0.1030    1.4512   -0.6049 C   0  0  0  0  0
   -2.9842   -0.3842   -0.3136 C   0  0  0  0  0
    1.7927    1.5390   -2.5654 C   0  0  0  0  0
    2.8647   -0.5593   -1.7121 C   0  0  0  0  0
    4.8067    2.0033   -4.7130 C   0  0  0  0  0
    3.8556    1.3055   -5.6642 C   0  0  0  0  0
    4.2184    1.6729   -3.3461 C   0  0  0  0  0
    2.4962    1.5475   -5.0182 C   0  0  0  0  0
   -3.5103   -4.5928   -0.8966 C   0  0  0  0  0
   -2.3696   -0.7799    2.0997 C   0  0  0  0  0
   -3.5936    0.0417   -2.7228 C   0  0  0  0  0
    0.8654    2.5226   -2.5437 N   0  0  0  0  0
    2.7713    1.5836   -3.5766 N   0  0  0  0  0
   -1.1098    1.4400    0.4036 N   0  0  0  0  0
    2.6288   -1.6165   -2.4078 O   0  0  0  0  0
    3.9633   -0.3878   -1.0634 O   0  0  0  0  0
   -3.6013    1.7330    1.0511 O   0  0  0  0  0
   -2.9451    2.0066   -1.3559 O   0  0  0  0  0
   -2.7646    1.3554   -0.0725 S   0  0  0  0  0
  1  9  1  0  0  0
  2  6  1  0  0  0
  3  8  1  0  0  0
  4 20  1  0  0  0
  5 11  1  0  0  0
  5 12  1  0  0  0
  7 10  1  0  0  0
  9 22  1  0  0  0
 11 21  1  0  0  0
 12 23  1  0  0  0
 13 14  1  0  0  0
 13 15  1  0  0  0
 14 16  1  0  0  0
 15 21  1  0  0  0
 16 21  1  0  0  0
 17  6  1  0  0  0
 18  7  1  0  0  0
 19  8  1  0  0  0
 27 10  1  0  0  0
 27 22  1  0  0  0
  1  5  2  0  0  0
  2  7  2  0  0  0
  3  6  2  0  0  0
  4  9  2  0  0  0
  8 10  2  0  0  0
 11 20  2  0  0  0
 12 24  2  0  0  0
 27 25  2  0  0  0
 27 26  2  0  0  0
M  CHG  1  23  -1
M  END
> <rmsd>
0.510525703

$$$$
ZINC35397444


 27 29  0  0  0  0  0  0  0  0999 V2000
   -3.2796   -2.5843    0.4532 C   0  0  0  0  0
   -2.8804   -3.1086   -0.7761 C   0  0  0  0  0
   -3.2322   -1.2077    0.6729 C   0  0  0  0  0
    1.0047    0.7847   -0.3094 C   0  0  0  0  0
   -2.3864   -0.8794   -1.5662 C   0  0  0  0  0
    0.0115    2.7191   -1.2731 C   0  0  0  0  0
    2.0570    0.9142   -1.2090 C   0  0  0  0  0
   -2.4338   -2.2562   -1.7858 C   0  0  0  0  0
   -0.0415    1.7003   -0.3355 C   0  0  0  0  0
   -2.7856   -0.3552   -0.3369 C   0  0  0  0  0
    2.0159    1.9681   -2.1076 C   0  0  0  0  0
    3.1640   -0.0571   -1.1794 C   0  0  0  0  0
    4.2939    4.1279   -4.9073 C   0  0  0  0  0
    3.6863    3.1940   -5.9529 C   0  0  0  0  0
    5.0887    3.3921   -3.8283 C   0  0  0  0  0
    2.6029    2.2544   -5.4268 C   0  0  0  0  0
    4.2400    2.9115   -2.6497 C   0  0  0  0  0
    3.0692    1.3628   -4.2779 C   0  0  0  0  0
   -2.0056   -2.8177   -3.0996 C   0  0  0  0  0
    1.0168    2.8771   -2.1630 N   0  0  0  0  0
    3.0721    2.1047   -3.0164 N   0  0  0  0  0
   -1.1339    1.5939    0.5733 N   0  0  0  0  0
    3.0771   -1.1164   -1.9055 O   0  0  0  0  0
    4.1806    0.1865   -0.4282 O   0  0  0  0  0
   -3.6902    1.6837    0.9862 O   0  0  0  0  0
   -2.8359    2.0497   -1.3453 O   0  0  0  0  0
   -2.7256    1.3915   -0.0576 S   0  0  0  0  0
  1  3  1  0  0  0
  2  8  1  0  0  0
  4  9  1  0  0  0
  5 10  1  0  0  0
  6 20  1  0  0  0
  7 11  1  0  0  0
  7 12  1  0  0  0
  9 22  1  0  0  0
 11 21  1  0  0  0
 12 23  1  0  0  0
 13 14  1  0  0  0
 13 15  1  0  0  0
 14 16  1  0  0  0
 15 17  1  0  0  0
 16 18  1  0  0  0
 17 21  1  0  0  0
 18 21  1  0  0  0
 19  8  1  0  0  0
 27 10  1  0  0  0
 27 22  1  0  0  0
  1  2  2  0  0  0
  3 10  2  0  0  0
  4  7  2  0  0  0
  5  8  2  0  0  0
  6  9  2  0  0  0
 11 20  2  0  0  0
 12 24  2  0  0  0
 27 25  2  0  0  0
 27 26  2  0  0  0
M  CHG  1  23  -1
M  END
> <rmsd>
0.688949466

$$$$
ZINC35397444


 27 29  0  0  0  0  0  0  0  0999 V2000
   -3.5701   -2.5598    0.5593 C   0  0  0  0  0
   -3.3298   -3.1267   -0.6923 C   0  0  0  0  0
   -3.3971   -1.1888    0.7489 C   0  0  0  0  0
    0.8685    0.4570   -0.6592 C   0  0  0  0  0
   -2.7433   -0.9513   -1.5648 C   0  0  0  0  0
   -0.0600    2.4524   -1.5607 C   0  0  0  0  0
    1.8382    0.4945   -1.6550 C   0  0  0  0  0
   -2.9164   -2.3225   -1.7543 C   0  0  0  0  0
   -0.1023    1.4509   -0.6042 C   0  0  0  0  0
   -2.9836   -0.3846   -0.3132 C   0  0  0  0  0
    1.7934    1.5387   -2.5646 C   0  0  0  0  0
    2.8655   -0.5597   -1.7111 C   0  0  0  0  0
    3.9562    3.4845   -5.6025 C   0  0  0  0  0
    3.1830    2.5896   -6.5700 C   0  0  0  0  0
    4.7904    2.7006   -4.5892 C   0  0  0  0  0
    2.0854    1.7430   -5.9287 C   0  0  0  0  0
    4.0222    2.3002   -3.3282 C   0  0  0  0  0
    2.5881    0.8300   -4.8124 C   0  0  0  0  0
   -2.6581   -2.9296   -3.0920 C   0  0  0  0  0
    0.8661    2.5222   -2.5431 N   0  0  0  0  0
    2.7667    1.5829   -3.5701 N   0  0  0  0  0
   -1.1092    1.4396    0.4042 N   0  0  0  0  0
    2.6297   -1.6168   -2.4069 O   0  0  0  0  0
    3.9640   -0.3880   -1.0623 O   0  0  0  0  0
   -3.6009    1.7327    1.0515 O   0  0  0  0  0
   -2.9444    2.0061   -1.3555 O   0  0  0  0  0
   -2.7640    1.3551   -0.0721 S   0  0  0  0  0
  1  3  1  0  0  0
  2  8  1  0  0  0
  4  9  1  0  0  0
  5 10  1  0  0  0
  6 20  1  0  0  0
  7 11  1  0  0  0
  7 12  1  0  0  0
  9 22  1  0  0  0
 11 21  1  0  0  0
 12 23  1  0  0  0
 13 14  1  0  0  0
 13 15  1  0  0  0
 14 16  1  0  0  0
 15 17  1  0  0  0
 16 18  1  0  0  0
 17 21  1  0  0  0
 18 21  1  0  0  0
 19  8  1  0  0  0
 27 10  1  0  0  0
 27 22  1  0  0  0
  1  2  2  0  0  0
  3 10  2  0  0  0
  4  7  2  0  0  0
  5  8  2  0  0  0
  6  9  2  0  0  0
 11 20  2  0  0  0
 12 24  2  0  0  0
 27 25  2  0  0  0
 27 26  2  0  0  0
M  CHG  1  23  -1
M  END
> <rmsd>
0.509996593

$$$$
ZINC35397326


 27 29  0  0  0  0  0  0  0  0999 V2000
   -3.2792   -2.5851    0.4521 C   0  0  0  0  0
   -2.4332   -2.2556   -1.7869 C   0  0  0  0  0
   -3.2323   -1.2085    0.6724 C   0  0  0  0  0
   -2.3865   -0.8791   -1.5666 C   0  0  0  0  0
    1.0042    0.7847   -0.3102 C   0  0  0  0  0
    0.0109    2.7187   -1.2742 C   0  0  0  0  0
    2.0564    0.9140   -1.2099 C   0  0  0  0  0
   -2.8795   -3.1087   -0.7775 C   0  0  0  0  0
   -0.0420    1.7002   -0.3364 C   0  0  0  0  0
   -2.7859   -0.3555   -0.3369 C   0  0  0  0  0
    2.0153    1.9676   -2.1087 C   0  0  0  0  0
    3.1636   -0.0571   -1.1801 C   0  0  0  0  0
    4.3904    1.2145   -4.8969 C   0  0  0  0  0
    5.2512    3.1287   -3.5354 C   0  0  0  0  0
    2.9919    1.4374   -4.3215 C   0  0  0  0  0
    3.8496    3.3493   -2.9687 C   0  0  0  0  0
    5.1982    2.5154   -4.9385 C   0  0  0  0  0
   -2.9274   -4.5804   -1.0126 C   0  0  0  0  0
    6.6051    2.2654   -5.4762 C   0  0  0  0  0
    1.0162    2.8767   -2.1642 N   0  0  0  0  0
    3.0713    2.1041   -3.0176 N   0  0  0  0  0
   -1.1343    1.5939    0.5726 N   0  0  0  0  0
    3.0766   -1.1168   -1.9061 O   0  0  0  0  0
    4.1803    0.1865   -0.4291 O   0  0  0  0  0
   -3.6905    1.6837    0.9856 O   0  0  0  0  0
   -2.8363    2.0491   -1.3460 O   0  0  0  0  0
   -2.7260    1.3913   -0.0582 S   0  0  0  0  0
  1  8  1  0  0  0
  2  4  1  0  0  0
  3 10  1  0  0  0
  5  9  1  0  0  0
  6 20  1  0  0  0
  7 11  1  0  0  0
  7 12  1  0  0  0
  9 22  1  0  0  0
 11 21  1  0  0  0
 12 23  1  0  0  0
 13 15  1  0  0  0
 13 17  1  0  0  0
 14 16  1  0  0  0
 14 17  1  0  0  0
 15 21  1  0  0  0
 16 21  1  0  0  0
 17 19  1  0  0  0
 18  8  1  0  0  0
 27 10  1  0  0  0
 27 22  1  0  0  0
  1  3  2  0  0  0
  2  8  2  0  0  0
  4 10  2  0  0  0
  5  7  2  0  0  0
  6  9  2  0  0  0
 11 20  2  0  0  0
 12 24  2  0  0  0
 27 25  2  0  0  0
 27 26  2  0  0  0
M  CHG  1  23  -1
M  END
> <rmsd>
0.689334929

$$$$
ZINC35397326


 27 29  0  0  0  0  0  0  0  0999 V2000
   -3.5700   -2.5606    0.5582 C   0  0  0  0  0
   -2.9162   -2.3220   -1.7554 C   0  0  0  0  0
   -3.3974   -1.1896    0.7485 C   0  0  0  0  0
   -2.7436   -0.9510   -1.5651 C   0  0  0  0  0
    0.8678    0.4568   -0.6602 C   0  0  0  0  0
   -0.0610    2.4520   -1.5620 C   0  0  0  0  0
    1.8373    0.4941   -1.6562 C   0  0  0  0  0
   -3.3294   -3.1268   -0.6936 C   0  0  0  0  0
   -0.1030    1.4507   -0.6052 C   0  0  0  0  0
   -2.9841   -0.3848   -0.3132 C   0  0  0  0  0
    1.7924    1.5381   -2.5660 C   0  0  0  0  0
    2.8647   -0.5600   -1.7122 C   0  0  0  0  0
    3.8294    0.5725   -5.5494 C   0  0  0  0  0
    4.9587    2.4282   -4.3086 C   0  0  0  0  0
    2.5125    0.9098   -4.8503 C   0  0  0  0  0
    3.6378    2.7633   -3.6178 C   0  0  0  0  0
    4.7269    1.8059   -5.6894 C   0  0  0  0  0
   -3.5118   -4.5928   -0.8968 C   0  0  0  0  0
    6.0536    1.4414   -6.3512 C   0  0  0  0  0
    0.8651    2.5216   -2.5445 N   0  0  0  0  0
    2.7654    1.5822   -3.5716 N   0  0  0  0  0
   -1.1097    1.4396    0.4034 N   0  0  0  0  0
    2.6288   -1.6173   -2.4078 O   0  0  0  0  0
    3.9634   -0.3883   -1.0637 O   0  0  0  0  0
   -3.6012    1.7327    1.0511 O   0  0  0  0  0
   -2.9452    2.0056   -1.3562 O   0  0  0  0  0
   -2.7646    1.3549   -0.0726 S   0  0  0  0  0
  1  8  1  0  0  0
  2  4  1  0  0  0
  3 10  1  0  0  0
  5  9  1  0  0  0
  6 20  1  0  0  0
  7 11  1  0  0  0
  7 12  1  0  0  0
  9 22  1  0  0  0
 11 21  1  0  0  0
 12 23  1  0  0  0
 13 15  1  0  0  0
 13 17  1  0  0  0
 14 16  1  0  0  0
 14 17  1  0  0  0
 15 21  1  0  0  0
 16 21  1  0  0  0
 17 19  1  0  0  0
 18  8  1  0  0  0
 27 10  1  0  0  0
 27 22  1  0  0  0
  1  3  2  0  0  0
  2  8  2  0  0  0
  4 10  2  0  0  0
  5  7  2  0  0  0
  6  9  2  0  0  0
 11 20  2  0  0  0
 12 24  2  0  0  0
 27 25  2  0  0  0
 27 26  2  0  0  0
M  CHG  1  23  -1
M  END
> <rmsd>
0.510177195

$$$$
ZINC35397458


 27 29  0  0  0  0  0  0  0  0999 V2000
   -3.2790   -2.5846    0.4518 C   0  0  0  0  0
   -2.4328   -2.2547   -1.7870 C   0  0  0  0  0
   -3.2322   -1.2080    0.6723 C   0  0  0  0  0
   -2.3860   -0.8781   -1.5665 C   0  0  0  0  0
    1.0044    0.7854   -0.3094 C   0  0  0  0  0
    0.0112    2.7197   -1.2732 C   0  0  0  0  0
    2.0567    0.9149   -1.2089 C   0  0  0  0  0
   -2.8793   -3.1079   -0.7779 C   0  0  0  0  0
   -0.0418    1.7009   -0.3356 C   0  0  0  0  0
   -2.7857   -0.3549   -0.3368 C   0  0  0  0  0
    2.0157    1.9687   -2.1076 C   0  0  0  0  0
    3.1639   -0.0562   -1.1793 C   0  0  0  0  0
    4.5715    1.6731   -4.8081 C   0  0  0  0  0
    4.9703    2.9777   -4.1484 C   0  0  0  0  0
    3.1268    1.4948   -4.3554 C   0  0  0  0  0
    4.3009    2.8822   -2.7822 C   0  0  0  0  0
   -1.5346   -5.1774   -1.2901 C   0  0  0  0  0
   -3.8953   -4.9635   -2.1483 C   0  0  0  0  0
   -2.9272   -4.5796   -1.0132 C   0  0  0  0  0
    1.0165    2.8778   -2.1631 N   0  0  0  0  0
    3.0778    2.1062   -3.0215 N   0  0  0  0  0
   -1.1342    1.5945    0.5733 N   0  0  0  0  0
    3.0770   -1.1157   -1.9053 O   0  0  0  0  0
    4.1805    0.1874   -0.4281 O   0  0  0  0  0
   -3.6905    1.6841    0.9860 O   0  0  0  0  0
   -2.8361    2.0501   -1.3454 O   0  0  0  0  0
   -2.7258    1.3919   -0.0577 S   0  0  0  0  0
  1  8  1  0  0  0
  2  4  1  0  0  0
  3 10  1  0  0  0
  5  9  1  0  0  0
  6 20  1  0  0  0
  7 11  1  0  0  0
  7 12  1  0  0  0
  9 22  1  0  0  0
 11 21  1  0  0  0
 12 23  1  0  0  0
 13 14  1  0  0  0
 13 15  1  0  0  0
 14 16  1  0  0  0
 15 21  1  0  0  0
 16 21  1  0  0  0
 17 19  1  0  0  0
 18 19  1  0  0  0
 19  8  1  0  0  0
 27 10  1  0  0  0
 27 22  1  0  0  0
  1  3  2  0  0  0
  2  8  2  0  0  0
  4 10  2  0  0  0
  5  7  2  0  0  0
  6  9  2  0  0  0
 11 20  2  0  0  0
 12 24  2  0  0  0
 27 25  2  0  0  0
 27 26  2  0  0  0
M  CHG  1  23  -1
M  END
> <rmsd>
0.68965143

$$$$
ZINC35397458


 27 29  0  0  0  0  0  0  0  0999 V2000
   -3.5699   -2.5601    0.5580 C   0  0  0  0  0
   -2.9160   -2.3212   -1.7555 C   0  0  0  0  0
   -3.3972   -1.1891    0.7484 C   0  0  0  0  0
   -2.7433   -0.9502   -1.5651 C   0  0  0  0  0
    0.8681    0.4574   -0.6597 C   0  0  0  0  0
   -0.0606    2.4528   -1.5612 C   0  0  0  0  0
    1.8376    0.4948   -1.6556 C   0  0  0  0  0
   -3.3293   -3.1261   -0.6940 C   0  0  0  0  0
   -0.1027    1.4513   -0.6047 C   0  0  0  0  0
   -2.9839   -0.3842   -0.3131 C   0  0  0  0  0
    1.7928    1.5389   -2.5653 C   0  0  0  0  0
    2.8650   -0.5593   -1.7119 C   0  0  0  0  0
    4.0523    1.0162   -5.4866 C   0  0  0  0  0
    4.6103    2.2926   -4.8905 C   0  0  0  0  0
    2.6473    0.9558   -4.8980 C   0  0  0  0  0
    4.0674    2.2642   -3.4663 C   0  0  0  0  0
   -2.2015   -5.2995   -1.2922 C   0  0  0  0  0
   -4.6092   -4.9114   -1.9302 C   0  0  0  0  0
   -3.5118   -4.5921   -0.8974 C   0  0  0  0  0
    0.8655    2.5225   -2.5437 N   0  0  0  0  0
    2.7714    1.5834   -3.5766 N   0  0  0  0  0
   -1.1095    1.4401    0.4039 N   0  0  0  0  0
    2.6290   -1.6165   -2.4075 O   0  0  0  0  0
    3.9636   -0.3877   -1.0632 O   0  0  0  0  0
   -3.6010    1.7331    1.0515 O   0  0  0  0  0
   -2.9449    2.0064   -1.3556 O   0  0  0  0  0
   -2.7643    1.3555   -0.0722 S   0  0  0  0  0
  1  8  1  0  0  0
  2  4  1  0  0  0
  3 10  1  0  0  0
  5  9  1  0  0  0
  6 20  1  0  0  0
  7 11  1  0  0  0
  7 12  1  0  0  0
  9 22  1  0  0  0
 11 21  1  0  0  0
 12 23  1  0  0  0
 13 14  1  0  0  0
 13 15  1  0  0  0
 14 16  1  0  0  0
 15 21  1  0  0  0
 16 21  1  0  0  0
 17 19  1  0  0  0
 18 19  1  0  0  0
 19  8  1  0  0  0
 27 10  1  0  0  0
 27 22  1  0  0  0
  1  3  2  0  0  0
  2  8  2  0  0  0
  4 10  2  0  0  0
  5  7  2  0  0  0
  6  9  2  0  0  0
 11 20  2  0  0  0
 12 24  2  0  0  0
 27 25  2  0  0  0
 27 26  2  0  0  0
M  CHG  1  23  -1
M  END
> <rmsd>
0.510469079

$$$$
ZINC35397464


 27 29  0  0  0  0  0  0  0  0999 V2000
    1.0031    0.7880   -0.3125 C   0  0  0  0  0
   -2.7562   -2.6312    0.5044 C   0  0  0  0  0
   -2.9043   -0.8378   -1.6273 C   0  0  0  0  0
    0.0026    2.7137   -1.2860 C   0  0  0  0  0
    2.0525    0.9141   -1.2158 C   0  0  0  0  0
   -2.8760   -3.1079   -0.8010 C   0  0  0  0  0
   -2.7105   -1.2578    0.7440 C   0  0  0  0  0
   -2.9501   -2.2111   -1.8668 C   0  0  0  0  0
   -0.0453    1.7009   -0.3418 C   0  0  0  0  0
   -2.7845   -0.3611   -0.3218 C   0  0  0  0  0
    2.0065    1.9619   -2.1212 C   0  0  0  0  0
    3.1621   -0.0543   -1.1830 C   0  0  0  0  0
    5.1553    2.6893   -3.9836 C   0  0  0  0  0
    4.3532    1.9291   -5.0203 C   0  0  0  0  0
    4.4743    2.2973   -2.6773 C   0  0  0  0  0
    2.9259    2.0547   -4.4998 C   0  0  0  0  0
   -2.9232   -4.5825   -1.0330 C   0  0  0  0  0
   -2.5809   -0.7799    2.1536 C   0  0  0  0  0
   -3.0790   -2.6985   -3.2728 C   0  0  0  0  0
    1.0051    2.8683   -2.1798 N   0  0  0  0  0
    3.0658    2.0959   -3.0390 N   0  0  0  0  0
   -1.1350    1.5979    0.5709 N   0  0  0  0  0
    3.0755   -1.1187   -1.9018 O   0  0  0  0  0
    4.1801    0.1966   -0.4362 O   0  0  0  0  0
   -3.6903    1.6843    0.9902 O   0  0  0  0  0
   -2.8433    2.0370   -1.3459 O   0  0  0  0  0
   -2.7278    1.3875   -0.0543 S   0  0  0  0  0
  1  9  1  0  0  0
  2  6  1  0  0  0
  3  8  1  0  0  0
  4 20  1  0  0  0
  5 11  1  0  0  0
  5 12  1  0  0  0
  7 10  1  0  0  0
  9 22  1  0  0  0
 11 21  1  0  0  0
 12 23  1  0  0  0
 13 14  1  0  0  0
 13 15  1  0  0  0
 14 16  1  0  0  0
 15 21  1  0  0  0
 16 21  1  0  0  0
 17  6  1  0  0  0
 18  7  1  0  0  0
 19  8  1  0  0  0
 27 10  1  0  0  0
 27 22  1  0  0  0
  1  5  2  0  0  0
  2  7  2  0  0  0
  3 10  2  0  0  0
  4  9  2  0  0  0
  6  8  2  0  0  0
 11 20  2  0  0  0
 12 24  2  0  0  0
 27 25  2  0  0  0
 27 26  2  0  0  0
M  CHG  1  23  -1
M  END
> <rmsd>
0.692719638

$$$$
ZINC35397464


 27 29  0  0  0  0  0  0  0  0999 V2000
    0.8671    0.4574   -0.6598 C   0  0  0  0  0
   -3.0516   -2.6467    0.5644 C   0  0  0  0  0
   -3.2600   -0.8712   -1.5773 C   0  0  0  0  0
   -0.0686    2.4446   -1.5721 C   0  0  0  0  0
    1.8339    0.4905   -1.6585 C   0  0  0  0  0
   -3.3296   -3.1271   -0.7153 C   0  0  0  0  0
   -2.8779   -1.2785    0.7733 C   0  0  0  0  0
   -3.4337   -2.2393   -1.7860 C   0  0  0  0  0
   -0.1059    1.4494   -0.6088 C   0  0  0  0  0
   -2.9820   -0.3908   -0.2975 C   0  0  0  0  0
    1.7843    1.5285   -2.5750 C   0  0  0  0  0
    2.8636   -0.5615   -1.7105 C   0  0  0  0  0
    4.7915    1.9855   -4.7338 C   0  0  0  0  0
    3.8395    1.2790   -5.6776 C   0  0  0  0  0
    4.2076    1.6629   -3.3631 C   0  0  0  0  0
    2.4812    1.5222   -5.0297 C   0  0  0  0  0
   -3.5119   -4.5960   -0.9146 C   0  0  0  0  0
   -2.5804   -0.7965    2.1558 C   0  0  0  0  0
   -3.7310   -2.7308   -3.1648 C   0  0  0  0  0
    0.8547    2.5100   -2.5574 N   0  0  0  0  0
    2.7601    1.5686   -3.5891 N   0  0  0  0  0
   -1.1100    1.4425    0.4024 N   0  0  0  0  0
    2.6283   -1.6239   -2.3985 O   0  0  0  0  0
    3.9635   -0.3830   -1.0659 O   0  0  0  0  0
   -3.6005    1.7340    1.0546 O   0  0  0  0  0
   -2.9513    1.9929   -1.3560 O   0  0  0  0  0
   -2.7658    1.3509   -0.0687 S   0  0  0  0  0
  1  9  1  0  0  0
  2  6  1  0  0  0
  3  8  1  0  0  0
  4 20  1  0  0  0
  5 11  1  0  0  0
  5 12  1  0  0  0
  7 10  1  0  0  0
  9 22  1  0  0  0
 11 21  1  0  0  0
 12 23  1  0  0  0
 13 14  1  0  0  0
 13 15  1  0  0  0
 14 16  1  0  0  0
 15 21  1  0  0  0
 16 21  1  0  0  0
 17  6  1  0  0  0
 18  7  1  0  0  0
 19  8  1  0  0  0
 27 10  1  0  0  0
 27 22  1  0  0  0
  1  5  2  0  0  0
  2  7  2  0  0  0
  3 10  2  0  0  0
  4  9  2  0  0  0
  6  8  2  0  0  0
 11 20  2  0  0  0
 12 24  2  0  0  0
 27 25  2  0  0  0
 27 26  2  0  0  0
M  CHG  1  23  -1
M  END
> <rmsd>
0.512813687

$$$$
ZINC03956905


 29 31  0  0  0  0  0  0  0  0999 V2000
   -3.6309   -3.1448    0.0776 C   0  0  0  0  0
   -5.2104    2.4271   -4.0362 C   0  0  0  0  0
    4.4515    1.7413    2.2143 C   0  0  0  0  0
    5.3358    1.7718    1.1360 C   0  0  0  0  0
   -2.5603   -2.6698   -0.6800 C   0  0  0  0  0
   -4.5330   -2.2477    0.6494 C   0  0  0  0  0
   -4.2048    1.4661   -4.1401 C   0  0  0  0  0
   -5.5376    2.9623   -2.7904 C   0  0  0  0  0
    3.1249    1.3576    2.0177 C   0  0  0  0  0
    4.8936    1.4186   -0.1388 C   0  0  0  0  0
   -2.3918   -1.2977   -0.8657 C   0  0  0  0  0
   -4.3645   -0.8755    0.4637 C   0  0  0  0  0
   -3.5265    1.0402   -2.9981 C   0  0  0  0  0
   -4.8593    2.5364   -1.6484 C   0  0  0  0  0
    2.6827    1.0045    0.7428 C   0  0  0  0  0
    3.5670    1.0349   -0.3355 C   0  0  0  0  0
   -3.2939   -0.4005   -0.2938 C   0  0  0  0  0
   -3.8537    1.5754   -1.7523 C   0  0  0  0  0
    1.2642    0.5984    0.5663 C   0  0  0  0  0
    3.1247    0.6672   -1.6935 C   0  0  0  0  0
   -1.6295    1.5359   -0.4480 C   0  0  0  0  0
   -3.1085    1.1073   -0.4976 C   0  0  0  0  0
    0.3217    1.5475    0.9128 N   0  0  0  0  0
   -1.0085    1.2426    0.7573 N   0  0  0  0  0
    3.2207   -0.5618   -2.0619 O   0  0  0  0  0
    1.0084   -0.5181    0.1218 O   0  0  0  0  0
    2.6591    1.5885   -2.4613 O   0  0  0  0  0
   -1.0531    2.0604   -1.4012 O   0  0  0  0  0
   -3.5920    1.8078    0.6666 O   0  0  0  0  0
  1  5  1  0  0  0
  2  7  1  0  0  0
  3  4  1  0  0  0
  6 12  1  0  0  0
  8 14  1  0  0  0
  9 15  1  0  0  0
 10 16  1  0  0  0
 11 17  1  0  0  0
 13 18  1  0  0  0
 15 19  1  0  0  0
 16 20  1  0  0  0
 19 23  1  0  0  0
 20 25  1  0  0  0
 21 24  1  0  0  0
 22 17  1  0  0  0
 22 18  1  0  0  0
 22 21  1  0  0  0
 22 29  1  0  0  0
 23 24  1  0  0  0
  1  6  2  0  0  0
  2  8  2  0  0  0
  3  9  2  0  0  0
  4 10  2  0  0  0
  5 11  2  0  0  0
  7 13  2  0  0  0
 12 17  2  0  0  0
 14 18  2  0  0  0
 15 16  2  0  0  0
 19 26  2  0  0  0
 20 27  2  0  0  0
 21 28  2  0  0  0
M  CHG  1  25  -1
M  END
> <rmsd>
0.423135012

$$$$
ZINC03356822


 27 28  0  0  0  0  0  0  0  0999 V2000
   -3.3179   -3.1234   -0.7367 C   0  0  0  0  0
   -3.0332   -2.6484    0.5435 C   0  0  0  0  0
    1.8133    1.4648   -2.6547 C   0  0  0  0  0
   -0.1339    2.4546   -1.6225 C   0  0  0  0  0
    0.8577    0.4666   -0.6729 C   0  0  0  0  0
   -3.2634   -0.8628   -1.5875 C   0  0  0  0  0
    0.8336    2.4573   -2.6272 C   0  0  0  0  0
    1.8252    0.4693   -1.6776 C   0  0  0  0  0
   -3.4330   -2.2305   -1.8023 C   0  0  0  0  0
   -2.8635   -1.2807    0.7582 C   0  0  0  0  0
   -0.1220    1.4592   -0.6452 C   0  0  0  0  0
   -2.9788   -0.3878   -0.3073 C   0  0  0  0  0
    0.8211    3.5076   -3.6583 C   0  0  0  0  0
    2.8590   -0.5782   -1.7068 C   0  0  0  0  0
   -2.5601   -0.8050    2.1413 C   0  0  0  0  0
   -3.8865   -4.2921   -3.1771 C   0  0  0  0  0
   -2.6036   -2.3710   -4.1769 C   0  0  0  0  0
   -5.0563   -2.1921   -3.8120 C   0  0  0  0  0
   -3.7473   -2.7548   -3.2132 C   0  0  0  0  0
   -1.1188    1.4571    0.3913 N   0  0  0  0  0
   -0.0943    4.4121   -3.6103 O   0  0  0  0  0
    2.8479   -1.4854   -0.7928 O   0  0  0  0  0
    1.7257    3.4872   -4.5747 O   0  0  0  0  0
    3.7406   -0.5527   -2.6451 O   0  0  0  0  0
   -3.5945    1.7246    1.0655 O   0  0  0  0  0
   -2.9743    2.0028   -1.3506 O   0  0  0  0  0
   -2.7727    1.3342   -0.0724 S   0  0  0  0  0
  1  9  1  0  0  0
  2 10  1  0  0  0
  3  7  1  0  0  0
  4 11  1  0  0  0
  5  8  1  0  0  0
  6 12  1  0  0  0
  7 13  1  0  0  0
  8 14  1  0  0  0
 11 20  1  0  0  0
 13 21  1  0  0  0
 14 22  1  0  0  0
 15 10  1  0  0  0
 16 19  1  0  0  0
 17 19  1  0  0  0
 18 19  1  0  0  0
 19  9  1  0  0  0
 27 12  1  0  0  0
 27 20  1  0  0  0
  1  2  2  0  0  0
  3  8  2  0  0  0
  4  7  2  0  0  0
  5 11  2  0  0  0
  6  9  2  0  0  0
 10 12  2  0  0  0
 13 23  2  0  0  0
 14 24  2  0  0  0
 27 25  2  0  0  0
 27 26  2  0  0  0
M  CHG  2  21  -1  22  -1
M  END
> <rmsd>
0.521985352

$$$$
ZINC12339935


 27 29  0  0  0  0  0  0  0  0999 V2000
   -3.3067   -3.1227   -0.7171 C   0  0  0  0  0
   -3.5410   -2.5662    0.5403 C   0  0  0  0  0
   -2.9076   -2.3082   -1.7769 C   0  0  0  0  0
    0.8684    2.5237   -2.5711 C   0  0  0  0  0
   -0.1074    2.5005   -1.5748 C   0  0  0  0  0
   -3.3765   -1.1952    0.7379 C   0  0  0  0  0
   -2.7431   -0.9371   -1.5793 C   0  0  0  0  0
    0.8579    0.4760   -0.6764 C   0  0  0  0  0
    1.8338    0.4992   -1.6729 C   0  0  0  0  0
    1.8390    1.5229   -2.6202 C   0  0  0  0  0
   -0.1127    1.4766   -0.6273 C   0  0  0  0  0
   -2.9775   -0.3807   -0.3218 C   0  0  0  0  0
    2.8485   -0.5709   -1.7021 C   0  0  0  0  0
    3.6873    2.7405   -3.6936 C   0  0  0  0  0
    2.5590    0.8990   -4.9111 C   0  0  0  0  0
    4.9646    2.3851   -4.4595 C   0  0  0  0  0
    3.8902    0.6342   -5.6206 C   0  0  0  0  0
    5.8337    3.6156   -4.6789 C   0  0  0  0  0
    3.6644    0.0816   -7.0211 C   0  0  0  0  0
    2.8086    1.5643   -3.6274 N   0  0  0  0  0
   -1.1118    1.4533    0.3922 N   0  0  0  0  0
    2.7996   -1.4917   -0.8053 O   0  0  0  0  0
    3.7460   -0.5445   -2.6233 O   0  0  0  0  0
   -3.5975    1.7226    1.0630 O   0  0  0  0  0
   -2.9656    2.0173   -1.3480 O   0  0  0  0  0
    4.6294    1.8531   -5.7453 O   0  0  0  0  0
   -2.7684    1.3588   -0.0709 S   0  0  0  0  0
  1  2  1  0  0  0
  3  7  1  0  0  0
  4 10  1  0  0  0
  5 11  1  0  0  0
  6 12  1  0  0  0
  8  9  1  0  0  0
  9 13  1  0  0  0
 10 20  1  0  0  0
 11 21  1  0  0  0
 13 22  1  0  0  0
 14 16  1  0  0  0
 14 20  1  0  0  0
 15 17  1  0  0  0
 15 20  1  0  0  0
 16 18  1  0  0  0
 16 26  1  0  0  0
 17 19  1  0  0  0
 17 26  1  0  0  0
 27 12  1  0  0  0
 27 21  1  0  0  0
  1  3  2  0  0  0
  2  6  2  0  0  0
  4  5  2  0  0  0
  7 12  2  0  0  0
  8 11  2  0  0  0
  9 10  2  0  0  0
 13 23  2  0  0  0
 27 24  2  0  0  0
 27 25  2  0  0  0
M  CHG  1  22  -1
M  END
> <rmsd>
0.525910914

$$$$
ZINC32962236


 27 29  0  0  0  0  0  0  0  0999 V2000
    0.8687    2.5243   -2.5712 C   0  0  0  0  0
   -0.1072    2.5011   -1.5748 C   0  0  0  0  0
    0.8585    0.4769   -0.6762 C   0  0  0  0  0
   -3.3064   -3.1222   -0.7174 C   0  0  0  0  0
   -3.3757   -1.1951    0.7380 C   0  0  0  0  0
   -2.7428   -0.9368   -1.5793 C   0  0  0  0  0
    1.8343    0.5002   -1.6727 C   0  0  0  0  0
   -3.5405   -2.5660    0.5401 C   0  0  0  0  0
   -2.9075   -2.3077   -1.7771 C   0  0  0  0  0
    1.8394    1.5238   -2.6201 C   0  0  0  0  0
   -0.1123    1.4773   -0.6273 C   0  0  0  0  0
   -2.9769   -0.3804   -0.3217 C   0  0  0  0  0
    2.8493   -0.5698   -1.7018 C   0  0  0  0  0
    4.0572    2.2926   -3.3589 C   0  0  0  0  0
    2.4028    1.5205   -5.0362 C   0  0  0  0  0
    5.1474    1.8130   -4.3103 C   0  0  0  0  0
    3.5815    1.0826   -5.8985 C   0  0  0  0  0
   -3.9668   -3.4370    1.6731 C   0  0  0  0  0
   -2.6571   -2.9026   -3.1215 C   0  0  0  0  0
    2.8091    1.5651   -3.6272 N   0  0  0  0  0
   -1.1114    1.4539    0.3923 N   0  0  0  0  0
    2.6047   -1.6333   -2.3829 O   0  0  0  0  0
    3.9423   -0.4010   -1.0448 O   0  0  0  0  0
   -3.5972    1.7228    1.0630 O   0  0  0  0  0
   -2.9653    2.0173   -1.3482 O   0  0  0  0  0
    4.7113    1.9228   -5.6651 O   0  0  0  0  0
   -2.7681    1.3591   -0.0709 S   0  0  0  0  0
  1 10  1  0  0  0
  2 11  1  0  0  0
  3  7  1  0  0  0
  4  9  1  0  0  0
  5  8  1  0  0  0
  6 12  1  0  0  0
  7 13  1  0  0  0
 10 20  1  0  0  0
 11 21  1  0  0  0
 13 22  1  0  0  0
 14 16  1  0  0  0
 14 20  1  0  0  0
 15 17  1  0  0  0
 15 20  1  0  0  0
 16 26  1  0  0  0
 17 26  1  0  0  0
 18  8  1  0  0  0
 19  9  1  0  0  0
 27 12  1  0  0  0
 27 21  1  0  0  0
  1  2  2  0  0  0
  3 11  2  0  0  0
  4  8  2  0  0  0
  5 12  2  0  0  0
  6  9  2  0  0  0
  7 10  2  0  0  0
 13 23  2  0  0  0
 27 24  2  0  0  0
 27 25  2  0  0  0
M  CHG  1  22  -1
M  END
> <rmsd>
0.525905609

$$$$
ZINC32962236


 27 29  0  0  0  0  0  0  0  0999 V2000
    1.0208    2.8839   -2.1907 C   0  0  0  0  0
   -0.0386    2.7669   -1.2909 C   0  0  0  0  0
    0.9953    0.8068   -0.3285 C   0  0  0  0  0
   -2.8522   -3.1014   -0.8022 C   0  0  0  0  0
   -3.2076   -1.2129    0.6620 C   0  0  0  0  0
   -2.3843   -0.8633   -1.5824 C   0  0  0  0  0
    2.0546    0.9238   -1.2285 C   0  0  0  0  0
   -3.2451   -2.5885    0.4340 C   0  0  0  0  0
   -2.4218   -2.2389   -1.8104 C   0  0  0  0  0
    2.0674    1.9623   -2.1595 C   0  0  0  0  0
   -0.0514    1.7283   -0.3598 C   0  0  0  0  0
   -2.7772   -0.3502   -0.3462 C   0  0  0  0  0
    3.1488   -0.0640   -1.1741 C   0  0  0  0  0
    4.2769    2.9134   -2.6776 C   0  0  0  0  0
    2.8513    2.0475   -4.5117 C   0  0  0  0  0
    5.4851    2.5371   -3.5277 C   0  0  0  0  0
    4.1357    1.7179   -5.2642 C   0  0  0  0  0
   -3.7050   -3.5107    1.5119 C   0  0  0  0  0
   -2.0017   -2.7875   -3.1319 C   0  0  0  0  0
    3.1201    2.0970   -3.0704 N   0  0  0  0  0
   -1.1359    1.6089    0.5609 N   0  0  0  0  0
    3.0528   -1.1303   -1.8873 O   0  0  0  0  0
    4.1594    0.1763   -0.4153 O   0  0  0  0  0
   -3.6867    1.6728    0.9979 O   0  0  0  0  0
   -2.8586    2.0600   -1.3396 O   0  0  0  0  0
    5.1694    2.6383   -4.9161 O   0  0  0  0  0
   -2.7298    1.3953   -0.0571 S   0  0  0  0  0
  1 10  1  0  0  0
  2 11  1  0  0  0
  3  7  1  0  0  0
  4  9  1  0  0  0
  5  8  1  0  0  0
  6 12  1  0  0  0
  7 13  1  0  0  0
 10 20  1  0  0  0
 11 21  1  0  0  0
 13 22  1  0  0  0
 14 16  1  0  0  0
 14 20  1  0  0  0
 15 17  1  0  0  0
 15 20  1  0  0  0
 16 26  1  0  0  0
 17 26  1  0  0  0
 18  8  1  0  0  0
 19  9  1  0  0  0
 27 12  1  0  0  0
 27 21  1  0  0  0
  1  2  2  0  0  0
  3 11  2  0  0  0
  4  8  2  0  0  0
  5 12  2  0  0  0
  6  9  2  0  0  0
  7 10  2  0  0  0
 13 23  2  0  0  0
 27 24  2  0  0  0
 27 25  2  0  0  0
M  CHG  1  22  -1
M  END
> <rmsd>
0.706867337

$$$$
ZINC32962223


 27 29  0  0  0  0  0  0  0  0999 V2000
   -3.5395   -2.5665    0.5394 C   0  0  0  0  0
   -2.9060   -2.3075   -1.7777 C   0  0  0  0  0
    0.8692    2.5238   -2.5717 C   0  0  0  0  0
   -0.1067    2.5007   -1.5753 C   0  0  0  0  0
   -3.3752   -1.1957    0.7376 C   0  0  0  0  0
   -2.7418   -0.9366   -1.5795 C   0  0  0  0  0
    0.8590    0.4765   -0.6766 C   0  0  0  0  0
    1.8347    0.4996   -1.6731 C   0  0  0  0  0
   -3.3048   -3.1226   -0.7182 C   0  0  0  0  0
    1.8398    1.5232   -2.6206 C   0  0  0  0  0
   -0.1118    1.4770   -0.6277 C   0  0  0  0  0
   -2.9764   -0.3807   -0.3218 C   0  0  0  0  0
    2.8497   -0.5703   -1.7022 C   0  0  0  0  0
    4.0576    2.2919   -3.3595 C   0  0  0  0  0
    2.4031    1.5198   -5.0367 C   0  0  0  0  0
    5.1478    1.8122   -4.3110 C   0  0  0  0  0
    3.5818    1.0817   -5.8990 C   0  0  0  0  0
   -2.1937   -5.3695   -0.6651 C   0  0  0  0  0
   -3.4783   -4.5884   -0.9300 C   0  0  0  0  0
    2.8095    1.5644   -3.6278 N   0  0  0  0  0
   -1.1108    1.4537    0.3919 N   0  0  0  0  0
    2.6050   -1.6339   -2.3833 O   0  0  0  0  0
    3.9427   -0.4016   -1.0452 O   0  0  0  0  0
   -3.5966    1.7227    1.0628 O   0  0  0  0  0
   -2.9647    2.0170   -1.3484 O   0  0  0  0  0
    4.7116    1.9219   -5.6658 O   0  0  0  0  0
   -2.7675    1.3589   -0.0711 S   0  0  0  0  0
  1  9  1  0  0  0
  2  6  1  0  0  0
  3 10  1  0  0  0
  4 11  1  0  0  0
  5 12  1  0  0  0
  7  8  1  0  0  0
  8 13  1  0  0  0
 10 20  1  0  0  0
 11 21  1  0  0  0
 13 22  1  0  0  0
 14 16  1  0  0  0
 14 20  1  0  0  0
 15 17  1  0  0  0
 15 20  1  0  0  0
 16 26  1  0  0  0
 17 26  1  0  0  0
 18 19  1  0  0  0
 19  9  1  0  0  0
 27 12  1  0  0  0
 27 21  1  0  0  0
  1  5  2  0  0  0
  2  9  2  0  0  0
  3  4  2  0  0  0
  6 12  2  0  0  0
  7 11  2  0  0  0
  8 10  2  0  0  0
 13 23  2  0  0  0
 27 24  2  0  0  0
 27 25  2  0  0  0
M  CHG  1  22  -1
M  END
> <rmsd>
0.526297152

$$$$
ZINC32962223


 27 29  0  0  0  0  0  0  0  0999 V2000
   -3.2440   -2.5889    0.4333 C   0  0  0  0  0
   -2.4203   -2.2386   -1.8108 C   0  0  0  0  0
    1.0213    2.8834   -2.1912 C   0  0  0  0  0
   -0.0380    2.7665   -1.2913 C   0  0  0  0  0
   -3.2070   -1.2134    0.6616 C   0  0  0  0  0
   -2.3833   -0.8630   -1.5825 C   0  0  0  0  0
    0.9959    0.8064   -0.3289 C   0  0  0  0  0
    2.0552    0.9233   -1.2288 C   0  0  0  0  0
   -2.8505   -3.1016   -0.8029 C   0  0  0  0  0
    2.0679    1.9618   -2.1599 C   0  0  0  0  0
   -0.0508    1.7280   -0.3601 C   0  0  0  0  0
   -2.7767   -0.3504   -0.3462 C   0  0  0  0  0
    3.1493   -0.0645   -1.1745 C   0  0  0  0  0
    4.2775    2.9128   -2.6781 C   0  0  0  0  0
    2.8517    2.0469   -4.5122 C   0  0  0  0  0
    5.4856    2.5364   -3.5283 C   0  0  0  0  0
    4.1361    1.7172   -5.2647 C   0  0  0  0  0
   -1.5762   -5.2568   -0.6710 C   0  0  0  0  0
   -2.8879   -4.5722   -1.0467 C   0  0  0  0  0
    3.1206    2.0964   -3.0709 N   0  0  0  0  0
   -1.1353    1.6087    0.5607 N   0  0  0  0  0
    3.0532   -1.1308   -1.8876 O   0  0  0  0  0
    4.1599    0.1758   -0.4157 O   0  0  0  0  0
   -3.6860    1.6727    0.9977 O   0  0  0  0  0
   -2.8580    2.0598   -1.3398 O   0  0  0  0  0
    5.1699    2.6375   -4.9167 O   0  0  0  0  0
   -2.7292    1.3951   -0.0572 S   0  0  0  0  0
  1  9  1  0  0  0
  2  6  1  0  0  0
  3 10  1  0  0  0
  4 11  1  0  0  0
  5 12  1  0  0  0
  7  8  1  0  0  0
  8 13  1  0  0  0
 10 20  1  0  0  0
 11 21  1  0  0  0
 13 22  1  0  0  0
 14 16  1  0  0  0
 14 20  1  0  0  0
 15 17  1  0  0  0
 15 20  1  0  0  0
 16 26  1  0  0  0
 17 26  1  0  0  0
 18 19  1  0  0  0
 19  9  1  0  0  0
 27 12  1  0  0  0
 27 21  1  0  0  0
  1  5  2  0  0  0
  2  9  2  0  0  0
  3  4  2  0  0  0
  6 12  2  0  0  0
  7 11  2  0  0  0
  8 10  2  0  0  0
 13 23  2  0  0  0
 27 24  2  0  0  0
 27 25  2  0  0  0
M  CHG  1  22  -1
M  END
> <rmsd>
0.70737797

$$$$
ZINC32962219


 27 29  0  0  0  0  0  0  0  0999 V2000
   -3.2443   -2.5878    0.4338 C   0  0  0  0  0
    1.0219    2.8844   -2.1894 C   0  0  0  0  0
   -0.0376    2.7673   -1.2898 C   0  0  0  0  0
   -3.2077   -1.2121    0.6613 C   0  0  0  0  0
    0.9958    0.8065   -0.3280 C   0  0  0  0  0
   -2.3827   -0.8629   -1.5823 C   0  0  0  0  0
    2.0552    0.9237   -1.2277 C   0  0  0  0  0
   -2.8499   -3.1011   -0.8018 C   0  0  0  0  0
   -2.4191   -2.2386   -1.8099 C   0  0  0  0  0
    2.0683    1.9626   -2.1584 C   0  0  0  0  0
   -0.0507    1.7283   -0.3591 C   0  0  0  0  0
   -2.7770   -0.3497   -0.3467 C   0  0  0  0  0
    3.1492   -0.0643   -1.1736 C   0  0  0  0  0
    4.2781    2.9135   -2.6757 C   0  0  0  0  0
    2.8526    2.0486   -4.5105 C   0  0  0  0  0
    5.4864    2.5373   -3.5258 C   0  0  0  0  0
    4.1371    1.7190   -5.2629 C   0  0  0  0  0
   -2.8969   -4.5776   -1.0216 C   0  0  0  0  0
   -1.9908   -2.7651   -3.1403 C   0  0  0  0  0
    3.1213    2.0974   -3.0691 N   0  0  0  0  0
   -1.1355    1.6088    0.5614 N   0  0  0  0  0
    3.0531   -1.1303   -1.8872 O   0  0  0  0  0
    4.1597    0.1755   -0.4146 O   0  0  0  0  0
   -3.6863    1.6730    0.9980 O   0  0  0  0  0
   -2.8577    2.0610   -1.3392 O   0  0  0  0  0
    5.1710    2.6390   -4.9143 O   0  0  0  0  0
   -2.7293    1.3957   -0.0569 S   0  0  0  0  0
  1  8  1  0  0  0
  2 10  1  0  0  0
  3 11  1  0  0  0
  4 12  1  0  0  0
  5  7  1  0  0  0
  6  9  1  0  0  0
  7 13  1  0  0  0
 10 20  1  0  0  0
 11 21  1  0  0  0
 13 22  1  0  0  0
 14 16  1  0  0  0
 14 20  1  0  0  0
 15 17  1  0  0  0
 15 20  1  0  0  0
 16 26  1  0  0  0
 17 26  1  0  0  0
 18  8  1  0  0  0
 19  9  1  0  0  0
 27 12  1  0  0  0
 27 21  1  0  0  0
  1  4  2  0  0  0
  2  3  2  0  0  0
  5 11  2  0  0  0
  6 12  2  0  0  0
  7 10  2  0  0  0
  8  9  2  0  0  0
 13 23  2  0  0  0
 27 24  2  0  0  0
 27 25  2  0  0  0
M  CHG  1  22  -1
M  END
> <rmsd>
0.707394958

$$$$
ZINC32962219


 27 29  0  0  0  0  0  0  0  0999 V2000
   -3.5395   -2.5654    0.5399 C   0  0  0  0  0
    0.8698    2.5250   -2.5701 C   0  0  0  0  0
   -0.1062    2.5016   -1.5739 C   0  0  0  0  0
   -3.3758   -1.1944    0.7373 C   0  0  0  0  0
    0.8589    0.4768   -0.6760 C   0  0  0  0  0
   -2.7412   -0.9364   -1.5795 C   0  0  0  0  0
    1.8349    0.5003   -1.6723 C   0  0  0  0  0
   -3.3040   -3.1221   -0.7173 C   0  0  0  0  0
   -2.9048   -2.3076   -1.7769 C   0  0  0  0  0
    1.8403    1.5243   -2.6193 C   0  0  0  0  0
   -0.1117    1.4774   -0.6268 C   0  0  0  0  0
   -2.9767   -0.3799   -0.3223 C   0  0  0  0  0
    2.8497   -0.5699   -1.7017 C   0  0  0  0  0
    4.0583    2.2929   -3.3575 C   0  0  0  0  0
    2.4040    1.5218   -5.0353 C   0  0  0  0  0
    5.1486    1.8134   -4.3090 C   0  0  0  0  0
    3.5827    1.0839   -5.8976 C   0  0  0  0  0
   -3.4851   -4.5927   -0.9042 C   0  0  0  0  0
   -2.6454   -2.8811   -3.1314 C   0  0  0  0  0
    2.8101    1.5658   -3.6263 N   0  0  0  0  0
   -1.1110    1.4538    0.3926 N   0  0  0  0  0
    2.6049   -1.6331   -2.3832 O   0  0  0  0  0
    3.9426   -0.4015   -1.0444 O   0  0  0  0  0
   -3.5968    1.7230    1.0631 O   0  0  0  0  0
   -2.9644    2.0183   -1.3478 O   0  0  0  0  0
    4.7127    1.9239   -5.6638 O   0  0  0  0  0
   -2.7675    1.3595   -0.0708 S   0  0  0  0  0
  1  8  1  0  0  0
  2 10  1  0  0  0
  3 11  1  0  0  0
  4 12  1  0  0  0
  5  7  1  0  0  0
  6  9  1  0  0  0
  7 13  1  0  0  0
 10 20  1  0  0  0
 11 21  1  0  0  0
 13 22  1  0  0  0
 14 16  1  0  0  0
 14 20  1  0  0  0
 15 17  1  0  0  0
 15 20  1  0  0  0
 16 26  1  0  0  0
 17 26  1  0  0  0
 18  8  1  0  0  0
 19  9  1  0  0  0
 27 12  1  0  0  0
 27 21  1  0  0  0
  1  4  2  0  0  0
  2  3  2  0  0  0
  5 11  2  0  0  0
  6 12  2  0  0  0
  7 10  2  0  0  0
  8  9  2  0  0  0
 13 23  2  0  0  0
 27 24  2  0  0  0
 27 25  2  0  0  0
M  CHG  1  22  -1
M  END
> <rmsd>
0.52639091

$$$$
ZINC58009358


 27 29  0  0  0  0  0  0  0  0999 V2000
   -3.1630   -3.1244   -0.7476 C   0  0  0  0  0
   -3.4459   -2.5781    0.5043 C   0  0  0  0  0
   -2.7521   -2.2972   -1.7929 C   0  0  0  0  0
    1.9429    1.5940   -2.4779 C   0  0  0  0  0
    1.0435    2.6560   -2.3838 C   0  0  0  0  0
   -3.3182   -1.2045    0.7108 C   0  0  0  0  0
   -2.6244   -0.9236   -1.5864 C   0  0  0  0  0
    0.8212    0.4823   -0.6494 C   0  0  0  0  0
    1.8317    0.5071   -1.6107 C   0  0  0  0  0
    0.0330    2.6313   -1.4227 C   0  0  0  0  0
   -0.0782    1.5445   -0.5554 C   0  0  0  0  0
   -2.9074   -0.3773   -0.3346 C   0  0  0  0  0
    2.7807   -0.6134   -1.7104 C   0  0  0  0  0
   -1.1532    4.4381   -2.5847 C   0  0  0  0  0
   -0.9516    4.4830   -0.1043 C   0  0  0  0  0
   -2.5000    5.1417   -2.4863 C   0  0  0  0  0
   -2.2971    5.1915   -0.0117 C   0  0  0  0  0
   -3.6966    7.7317    0.0474 C   0  0  0  0  0
   -3.7711    6.8363   -1.1700 C   0  0  0  0  0
   -0.8590    3.7071   -1.3451 N   0  0  0  0  0
   -1.1063    1.4969    0.4383 N   0  0  0  0  0
   -2.5169    6.0129   -1.2560 N   0  0  0  0  0
    2.6567   -1.6049   -0.8976 O   0  0  0  0  0
    3.7042   -0.5657   -2.6067 O   0  0  0  0  0
   -3.6128    1.7060    1.0396 O   0  0  0  0  0
   -2.9218    2.0242   -1.3522 O   0  0  0  0  0
   -2.7449    1.3656   -0.0724 S   0  0  0  0  0
  1  2  1  0  0  0
  3  7  1  0  0  0
  4  9  1  0  0  0
  5 10  1  0  0  0
  6 12  1  0  0  0
  8 11  1  0  0  0
  9 13  1  0  0  0
 10 20  1  0  0  0
 11 21  1  0  0  0
 13 23  1  0  0  0
 14 16  1  0  0  0
 14 20  1  0  0  0
 15 17  1  0  0  0
 15 20  1  0  0  0
 16 22  1  0  0  0
 17 22  1  0  0  0
 18 19  1  0  0  0
 19 22  1  0  0  0
 27 12  1  0  0  0
 27 21  1  0  0  0
  1  3  2  0  0  0
  2  6  2  0  0  0
  4  5  2  0  0  0
  7 12  2  0  0  0
  8  9  2  0  0  0
 10 11  2  0  0  0
 13 24  2  0  0  0
 27 25  2  0  0  0
 27 26  2  0  0  0
M  CHG  2  22   1  23  -1
M  END
> <rmsd>
0.588899851

$$$$
ZINC64580577


 27 29  0  0  0  0  0  0  0  0999 V2000
   -3.3057   -3.1220   -0.7181 C   0  0  0  0  0
   -3.5402   -2.5658    0.5394 C   0  0  0  0  0
   -2.9066   -2.3073   -1.7777 C   0  0  0  0  0
    0.8691    2.5248   -2.5708 C   0  0  0  0  0
   -0.1068    2.5014   -1.5745 C   0  0  0  0  0
   -3.3759   -1.1949    0.7373 C   0  0  0  0  0
   -2.7423   -0.9364   -1.5798 C   0  0  0  0  0
    0.8586    0.4769   -0.6765 C   0  0  0  0  0
    1.8345    0.5003   -1.6728 C   0  0  0  0  0
    1.8397    1.5242   -2.6200 C   0  0  0  0  0
   -0.1121    1.4775   -0.6273 C   0  0  0  0  0
   -2.9769   -0.3801   -0.3223 C   0  0  0  0  0
    2.8493   -0.5698   -1.7022 C   0  0  0  0  0
    4.0530    2.2960   -3.3462 C   0  0  0  0  0
    2.3963    1.5199   -5.0339 C   0  0  0  0  0
    5.1861    1.7870   -4.2269 C   0  0  0  0  0
    3.5338    1.0171   -5.9136 C   0  0  0  0  0
    7.0593    2.4088   -6.3523 C   0  0  0  0  0
    5.8833    1.4902   -6.6031 C   0  0  0  0  0
    2.8101    1.5658   -3.6278 N   0  0  0  0  0
   -1.1113    1.4539    0.3923 N   0  0  0  0  0
    4.7621    1.8564   -5.6720 N   0  0  0  0  0
    2.6047   -1.6330   -2.3837 O   0  0  0  0  0
    3.9422   -0.4012   -1.0450 O   0  0  0  0  0
   -3.5971    1.7228    1.0629 O   0  0  0  0  0
   -2.9650    2.0179   -1.3481 O   0  0  0  0  0
   -2.7679    1.3594   -0.0711 S   0  0  0  0  0
  1  2  1  0  0  0
  3  7  1  0  0  0
  4 10  1  0  0  0
  5 11  1  0  0  0
  6 12  1  0  0  0
  8  9  1  0  0  0
  9 13  1  0  0  0
 10 20  1  0  0  0
 11 21  1  0  0  0
 13 23  1  0  0  0
 14 16  1  0  0  0
 14 20  1  0  0  0
 15 17  1  0  0  0
 15 20  1  0  0  0
 16 22  1  0  0  0
 17 22  1  0  0  0
 18 19  1  0  0  0
 19 22  1  0  0  0
 27 12  1  0  0  0
 27 21  1  0  0  0
  1  3  2  0  0  0
  2  6  2  0  0  0
  4  5  2  0  0  0
  7 12  2  0  0  0
  8 11  2  0  0  0
  9 10  2  0  0  0
 13 24  2  0  0  0
 27 25  2  0  0  0
 27 26  2  0  0  0
M  CHG  2  22   1  23  -1
M  END
> <rmsd>
0.526093841

$$$$
ZINC64580577


 27 29  0  0  0  0  0  0  0  0999 V2000
   -2.8517   -3.1012   -0.8026 C   0  0  0  0  0
   -3.2450   -2.5881    0.4334 C   0  0  0  0  0
   -2.4210   -2.2386   -1.8106 C   0  0  0  0  0
    1.0214    2.8840   -2.1900 C   0  0  0  0  0
   -0.0381    2.7669   -1.2904 C   0  0  0  0  0
   -3.2079   -1.2126    0.6614 C   0  0  0  0  0
   -2.3838   -0.8630   -1.5827 C   0  0  0  0  0
    0.9955    0.8065   -0.3284 C   0  0  0  0  0
    2.0549    0.9235   -1.2282 C   0  0  0  0  0
    2.0679    1.9623   -2.1590 C   0  0  0  0  0
   -0.0511    1.7282   -0.3595 C   0  0  0  0  0
   -2.7773   -0.3499   -0.3466 C   0  0  0  0  0
    3.1488   -0.0645   -1.1739 C   0  0  0  0  0
    4.2717    2.9156   -2.6648 C   0  0  0  0  0
    2.8451    2.0458   -4.5097 C   0  0  0  0  0
    5.5181    2.5119   -3.4406 C   0  0  0  0  0
    4.0954    1.6485   -5.2840 C   0  0  0  0  0
    7.5263    3.3157   -5.3731 C   0  0  0  0  0
    6.4545    2.3140   -5.7438 C   0  0  0  0  0
    3.1215    2.0972   -3.0704 N   0  0  0  0  0
   -1.1358    1.6087    0.5611 N   0  0  0  0  0
    5.2262    2.5753   -4.9183 N   0  0  0  0  0
    3.0528   -1.1304   -1.8874 O   0  0  0  0  0
    4.1593    0.1756   -0.4149 O   0  0  0  0  0
   -3.6866    1.6729    0.9977 O   0  0  0  0  0
   -2.8581    2.0606   -1.3396 O   0  0  0  0  0
   -2.7296    1.3955   -0.0572 S   0  0  0  0  0
  1  2  1  0  0  0
  3  7  1  0  0  0
  4 10  1  0  0  0
  5 11  1  0  0  0
  6 12  1  0  0  0
  8  9  1  0  0  0
  9 13  1  0  0  0
 10 20  1  0  0  0
 11 21  1  0  0  0
 13 23  1  0  0  0
 14 16  1  0  0  0
 14 20  1  0  0  0
 15 17  1  0  0  0
 15 20  1  0  0  0
 16 22  1  0  0  0
 17 22  1  0  0  0
 18 19  1  0  0  0
 19 22  1  0  0  0
 27 12  1  0  0  0
 27 21  1  0  0  0
  1  3  2  0  0  0
  2  6  2  0  0  0
  4  5  2  0  0  0
  7 12  2  0  0  0
  8 11  2  0  0  0
  9 10  2  0  0  0
 13 24  2  0  0  0
 27 25  2  0  0  0
 27 26  2  0  0  0
M  CHG  2  22   1  23  -1
M  END
> <rmsd>
0.707027018

$$$$
ZINC64580538


 27 29  0  0  0  0  0  0  0  0999 V2000
   -3.2445   -2.5887    0.4343 C   0  0  0  0  0
   -2.4209   -2.2385   -1.8099 C   0  0  0  0  0
    1.0208    2.8834   -2.1905 C   0  0  0  0  0
   -0.0385    2.7665   -1.2907 C   0  0  0  0  0
   -3.2075   -1.2132    0.6625 C   0  0  0  0  0
   -2.3838   -0.8630   -1.5816 C   0  0  0  0  0
    0.9954    0.8065   -0.3282 C   0  0  0  0  0
    2.0547    0.9233   -1.2282 C   0  0  0  0  0
   -2.8511   -3.1014   -0.8019 C   0  0  0  0  0
    2.0674    1.9618   -2.1593 C   0  0  0  0  0
   -0.0512    1.7281   -0.3595 C   0  0  0  0  0
   -2.7772   -0.3503   -0.3454 C   0  0  0  0  0
    3.1487   -0.0645   -1.1738 C   0  0  0  0  0
    3.8995    3.3413   -3.0323 C   0  0  0  0  0
    3.0405    1.4292   -4.3744 C   0  0  0  0  0
    5.2894    3.1236   -3.6148 C   0  0  0  0  0
    4.4319    1.2189   -4.9580 C   0  0  0  0  0
   -2.8885   -4.5721   -1.0456 C   0  0  0  0  0
    6.4958    2.4179   -5.6805 C   0  0  0  0  0
    3.1209    2.0965   -3.0710 N   0  0  0  0  0
   -1.1357    1.6088    0.5614 N   0  0  0  0  0
    5.1624    2.5365   -4.9976 N   0  0  0  0  0
    3.0527   -1.1308   -1.8869 O   0  0  0  0  0
    4.1594    0.1759   -0.4150 O   0  0  0  0  0
   -3.6865    1.6729    0.9984 O   0  0  0  0  0
   -2.8584    2.0599   -1.3391 O   0  0  0  0  0
   -2.7297    1.3953   -0.0566 S   0  0  0  0  0
  1  9  1  0  0  0
  2  6  1  0  0  0
  3 10  1  0  0  0
  4 11  1  0  0  0
  5 12  1  0  0  0
  7  8  1  0  0  0
  8 13  1  0  0  0
 10 20  1  0  0  0
 11 21  1  0  0  0
 13 23  1  0  0  0
 14 16  1  0  0  0
 14 20  1  0  0  0
 15 17  1  0  0  0
 15 20  1  0  0  0
 16 22  1  0  0  0
 17 22  1  0  0  0
 18  9  1  0  0  0
 19 22  1  0  0  0
 27 12  1  0  0  0
 27 21  1  0  0  0
  1  5  2  0  0  0
  2  9  2  0  0  0
  3  4  2  0  0  0
  6 12  2  0  0  0
  7 11  2  0  0  0
  8 10  2  0  0  0
 13 24  2  0  0  0
 27 25  2  0  0  0
 27 26  2  0  0  0
M  CHG  2  22   1  23  -1
M  END
> <rmsd>
0.7072469

$$$$
ZINC64580538


 27 29  0  0  0  0  0  0  0  0999 V2000
   -3.5397   -2.5663    0.5403 C   0  0  0  0  0
   -2.9065   -2.3073   -1.7768 C   0  0  0  0  0
    0.8686    2.5240   -2.5711 C   0  0  0  0  0
   -0.1072    2.5008   -1.5747 C   0  0  0  0  0
   -3.3755   -1.1955    0.7385 C   0  0  0  0  0
   -2.7422   -0.9364   -1.5787 C   0  0  0  0  0
    0.8586    0.4768   -0.6761 C   0  0  0  0  0
    1.8343    0.4999   -1.6727 C   0  0  0  0  0
   -3.3052   -3.1223   -0.7173 C   0  0  0  0  0
    1.8393    1.5235   -2.6202 C   0  0  0  0  0
   -0.1122    1.4773   -0.6271 C   0  0  0  0  0
   -2.9768   -0.3805   -0.3210 C   0  0  0  0  0
    2.8492   -0.5701   -1.7018 C   0  0  0  0  0
    3.6820    2.7451   -3.6852 C   0  0  0  0  0
    2.5557    0.8912   -4.9057 C   0  0  0  0  0
    4.9899    2.4124   -4.3902 C   0  0  0  0  0
    3.8656    0.5658   -5.6122 C   0  0  0  0  0
   -3.4785   -4.5882   -0.9290 C   0  0  0  0  0
    5.9386    1.5908   -6.5455 C   0  0  0  0  0
    2.8095    1.5648   -3.6282 N   0  0  0  0  0
   -1.1112    1.4539    0.3926 N   0  0  0  0  0
    4.6885    1.8214   -5.7440 N   0  0  0  0  0
    2.6046   -1.6335   -2.3829 O   0  0  0  0  0
    3.9423   -0.4012   -1.0449 O   0  0  0  0  0
   -3.5969    1.7229    1.0636 O   0  0  0  0  0
   -2.9652    2.0172   -1.3476 O   0  0  0  0  0
   -2.7679    1.3591   -0.0705 S   0  0  0  0  0
  1  9  1  0  0  0
  2  6  1  0  0  0
  3 10  1  0  0  0
  4 11  1  0  0  0
  5 12  1  0  0  0
  7  8  1  0  0  0
  8 13  1  0  0  0
 10 20  1  0  0  0
 11 21  1  0  0  0
 13 23  1  0  0  0
 14 16  1  0  0  0
 14 20  1  0  0  0
 15 17  1  0  0  0
 15 20  1  0  0  0
 16 22  1  0  0  0
 17 22  1  0  0  0
 18  9  1  0  0  0
 19 22  1  0  0  0
 27 12  1  0  0  0
 27 21  1  0  0  0
  1  5  2  0  0  0
  2  9  2  0  0  0
  3  4  2  0  0  0
  6 12  2  0  0  0
  7 11  2  0  0  0
  8 10  2  0  0  0
 13 24  2  0  0  0
 27 25  2  0  0  0
 27 26  2  0  0  0
M  CHG  2  22   1  23  -1
M  END
> <rmsd>
0.52622503

$$$$
ZINC33253492


 27 28  0  0  0  0  0  0  0  0999 V2000
   -3.5400   -2.5661    0.5398 C   0  0  0  0  0
   -2.9064   -2.3069   -1.7772 C   0  0  0  0  0
   -0.1071    2.5014   -1.5744 C   0  0  0  0  0
    0.8684    2.5243   -2.5711 C   0  0  0  0  0
   -3.3757   -1.1952    0.7380 C   0  0  0  0  0
   -2.7422   -0.9359   -1.5789 C   0  0  0  0  0
    0.8580    0.4768   -0.6761 C   0  0  0  0  0
    1.8335    0.4997   -1.6729 C   0  0  0  0  0
   -3.3052   -3.1219   -0.7178 C   0  0  0  0  0
   -0.1123    1.4777   -0.6269 C   0  0  0  0  0
    1.8387    1.5234   -2.6203 C   0  0  0  0  0
   -2.9769   -0.3801   -0.3213 C   0  0  0  0  0
    2.8486   -0.5700   -1.7021 C   0  0  0  0  0
   -3.4786   -4.5879   -0.9296 C   0  0  0  0  0
    5.3043    4.4487   -3.7029 C   0  0  0  0  0
    1.3994    0.9773   -7.1565 C   0  0  0  0  0
    3.9804    3.7165   -3.8700 C   0  0  0  0  0
    1.6825    1.6931   -5.8435 C   0  0  0  0  0
    4.0601    2.2528   -3.4531 C   0  0  0  0  0
    2.5617    0.8757   -4.9046 C   0  0  0  0  0
   -1.1115    1.4543    0.3928 N   0  0  0  0  0
    2.8124    1.5637   -3.6333 N   0  0  0  0  0
    2.6043   -1.6335   -2.3835 O   0  0  0  0  0
    3.9415   -0.4012   -1.0450 O   0  0  0  0  0
   -3.5972    1.7232    1.0634 O   0  0  0  0  0
   -2.9653    2.0177   -1.3477 O   0  0  0  0  0
   -2.7681    1.3595   -0.0706 S   0  0  0  0  0
  1  9  1  0  0  0
  2  6  1  0  0  0
  3 10  1  0  0  0
  4 11  1  0  0  0
  5 12  1  0  0  0
  7  8  1  0  0  0
  8 13  1  0  0  0
 10 21  1  0  0  0
 11 22  1  0  0  0
 13 23  1  0  0  0
 14  9  1  0  0  0
 15 17  1  0  0  0
 16 18  1  0  0  0
 17 19  1  0  0  0
 18 20  1  0  0  0
 19 22  1  0  0  0
 20 22  1  0  0  0
 27 12  1  0  0  0
 27 21  1  0  0  0
  1  5  2  0  0  0
  2  9  2  0  0  0
  3  4  2  0  0  0
  6 12  2  0  0  0
  7 10  2  0  0  0
  8 11  2  0  0  0
 13 24  2  0  0  0
 27 25  2  0  0  0
 27 26  2  0  0  0
M  CHG  1  23  -1
M  END
> <rmsd>
0.526357234

$$$$
ZINC33253492


 27 28  0  0  0  0  0  0  0  0999 V2000
   -3.2449   -2.5884    0.4339 C   0  0  0  0  0
   -2.4208   -2.2382   -1.8101 C   0  0  0  0  0
   -0.0382    2.7668   -1.2903 C   0  0  0  0  0
    1.0209    2.8833   -2.1904 C   0  0  0  0  0
   -3.2079   -1.2128    0.6622 C   0  0  0  0  0
   -2.3839   -0.8626   -1.5818 C   0  0  0  0  0
    0.9948    0.8062   -0.3280 C   0  0  0  0  0
    2.0541    0.9227   -1.2281 C   0  0  0  0  0
   -2.8513   -3.1010   -0.8022 C   0  0  0  0  0
   -0.0513    1.7283   -0.3591 C   0  0  0  0  0
    2.0671    1.9612   -2.1592 C   0  0  0  0  0
   -2.7773   -0.3499   -0.3457 C   0  0  0  0  0
    3.1482   -0.0649   -1.1737 C   0  0  0  0  0
   -2.8888   -4.5718   -1.0459 C   0  0  0  0  0
    5.3782    5.1643   -2.8775 C   0  0  0  0  0
    2.0958    1.4673   -6.7225 C   0  0  0  0  0
    4.1371    4.3356   -3.1768 C   0  0  0  0  0
    2.1985    2.1782   -5.3806 C   0  0  0  0  0
    4.2922    2.8749   -2.7708 C   0  0  0  0  0
    3.0480    1.4137   -4.3725 C   0  0  0  0  0
   -1.1361    1.6090    0.5616 N   0  0  0  0  0
    3.1246    2.0952   -3.0754 N   0  0  0  0  0
    3.0525   -1.1312   -1.8870 O   0  0  0  0  0
    4.1587    0.1753   -0.4147 O   0  0  0  0  0
   -3.6868    1.6733    0.9981 O   0  0  0  0  0
   -2.8584    2.0602   -1.3392 O   0  0  0  0  0
   -2.7298    1.3956   -0.0567 S   0  0  0  0  0
  1  9  1  0  0  0
  2  6  1  0  0  0
  3 10  1  0  0  0
  4 11  1  0  0  0
  5 12  1  0  0  0
  7  8  1  0  0  0
  8 13  1  0  0  0
 10 21  1  0  0  0
 11 22  1  0  0  0
 13 23  1  0  0  0
 14  9  1  0  0  0
 15 17  1  0  0  0
 16 18  1  0  0  0
 17 19  1  0  0  0
 18 20  1  0  0  0
 19 22  1  0  0  0
 20 22  1  0  0  0
 27 12  1  0  0  0
 27 21  1  0  0  0
  1  5  2  0  0  0
  2  9  2  0  0  0
  3  4  2  0  0  0
  6 12  2  0  0  0
  7 10  2  0  0  0
  8 11  2  0  0  0
 13 24  2  0  0  0
 27 25  2  0  0  0
 27 26  2  0  0  0
M  CHG  1  23  -1
M  END
> <rmsd>
0.707180023

$$$$
ZINC33253646


 27 28  0  0  0  0  0  0  0  0999 V2000
   -3.2445   -2.5883    0.4337 C   0  0  0  0  0
   -2.4207   -2.2380   -1.8104 C   0  0  0  0  0
   -0.0389    2.7674   -1.2910 C   0  0  0  0  0
    1.0201    2.8839   -2.1912 C   0  0  0  0  0
   -3.2076   -1.2128    0.6619 C   0  0  0  0  0
   -2.3839   -0.8624   -1.5821 C   0  0  0  0  0
    0.9946    0.8070   -0.3288 C   0  0  0  0  0
    2.0537    0.9236   -1.2291 C   0  0  0  0  0
   -2.8509   -3.1010   -0.8025 C   0  0  0  0  0
   -0.0517    1.7290   -0.3597 C   0  0  0  0  0
    2.0665    1.9621   -2.1603 C   0  0  0  0  0
   -2.7774   -0.3498   -0.3459 C   0  0  0  0  0
    3.1481   -0.0639   -1.1748 C   0  0  0  0  0
    4.0361    4.3423   -2.9644 C   0  0  0  0  0
    2.4057    2.2899   -5.3872 C   0  0  0  0  0
   -1.4930   -5.1558   -1.3386 C   0  0  0  0  0
   -3.8628   -4.9574   -2.1751 C   0  0  0  0  0
    4.2930    2.8903   -2.7444 C   0  0  0  0  0
    3.0723    1.4317   -4.3664 C   0  0  0  0  0
   -2.8882   -4.5717   -1.0461 C   0  0  0  0  0
   -1.1363    1.6095    0.5609 N   0  0  0  0  0
    3.1292    2.0969   -3.0812 N   0  0  0  0  0
    3.0524   -1.1302   -1.8879 O   0  0  0  0  0
    4.1586    0.1766   -0.4159 O   0  0  0  0  0
   -3.6870    1.6732    0.9979 O   0  0  0  0  0
   -2.8589    2.0604   -1.3397 O   0  0  0  0  0
   -2.7301    1.3957   -0.0571 S   0  0  0  0  0
  1  9  1  0  0  0
  2  6  1  0  0  0
  3 10  1  0  0  0
  4 11  1  0  0  0
  5 12  1  0  0  0
  7  8  1  0  0  0
  8 13  1  0  0  0
 10 21  1  0  0  0
 11 22  1  0  0  0
 13 23  1  0  0  0
 14 18  1  0  0  0
 15 19  1  0  0  0
 16 20  1  0  0  0
 17 20  1  0  0  0
 18 22  1  0  0  0
 19 22  1  0  0  0
 20  9  1  0  0  0
 27 12  1  0  0  0
 27 21  1  0  0  0
  1  5  2  0  0  0
  2  9  2  0  0  0
  3  4  2  0  0  0
  6 12  2  0  0  0
  7 10  2  0  0  0
  8 11  2  0  0  0
 13 24  2  0  0  0
 27 25  2  0  0  0
 27 26  2  0  0  0
M  CHG  1  23  -1
M  END
> <rmsd>
0.707298994

$$$$
ZINC33253646


 27 28  0  0  0  0  0  0  0  0999 V2000
   -3.5402   -2.5659    0.5399 C   0  0  0  0  0
   -2.9066   -2.3069   -1.7771 C   0  0  0  0  0
   -0.1076    2.5015   -1.5750 C   0  0  0  0  0
    0.8679    2.5243   -2.5717 C   0  0  0  0  0
   -3.3760   -1.1950    0.7380 C   0  0  0  0  0
   -2.7425   -0.9360   -1.5790 C   0  0  0  0  0
    0.8577    0.4771   -0.6765 C   0  0  0  0  0
    1.8332    0.4998   -1.6733 C   0  0  0  0  0
   -3.3054   -3.1219   -0.7177 C   0  0  0  0  0
   -0.1127    1.4780   -0.6273 C   0  0  0  0  0
    1.8383    1.5235   -2.6209 C   0  0  0  0  0
   -2.9772   -0.3800   -0.3214 C   0  0  0  0  0
    2.8483   -0.5698   -1.7025 C   0  0  0  0  0
    3.9013    3.7323   -3.6489 C   0  0  0  0  0
    1.8967    1.7869   -5.8709 C   0  0  0  0  0
   -2.1665   -5.2830   -1.3392 C   0  0  0  0  0
   -4.5821   -4.9086   -1.9554 C   0  0  0  0  0
    4.0649    2.2672   -3.4266 C   0  0  0  0  0
    2.5881    0.8907   -4.9007 C   0  0  0  0  0
   -3.4787   -4.5878   -0.9292 C   0  0  0  0  0
   -1.1119    1.4546    0.3923 N   0  0  0  0  0
    2.8168    1.5639   -3.6390 N   0  0  0  0  0
    2.6039   -1.6333   -2.3836 O   0  0  0  0  0
    3.9413   -0.4009   -1.0454 O   0  0  0  0  0
   -3.5976    1.7233    1.0631 O   0  0  0  0  0
   -2.9657    2.0177   -1.3481 O   0  0  0  0  0
   -2.7684    1.3596   -0.0709 S   0  0  0  0  0
  1  9  1  0  0  0
  2  6  1  0  0  0
  3 10  1  0  0  0
  4 11  1  0  0  0
  5 12  1  0  0  0
  7  8  1  0  0  0
  8 13  1  0  0  0
 10 21  1  0  0  0
 11 22  1  0  0  0
 13 23  1  0  0  0
 14 18  1  0  0  0
 15 19  1  0  0  0
 16 20  1  0  0  0
 17 20  1  0  0  0
 18 22  1  0  0  0
 19 22  1  0  0  0
 20  9  1  0  0  0
 27 12  1  0  0  0
 27 21  1  0  0  0
  1  5  2  0  0  0
  2  9  2  0  0  0
  3  4  2  0  0  0
  6 12  2  0  0  0
  7 10  2  0  0  0
  8 11  2  0  0  0
 13 24  2  0  0  0
 27 25  2  0  0  0
 27 26  2  0  0  0
M  CHG  1  23  -1
M  END
> <rmsd>
0.526088834

$$$$
ZINC78406490


 29 32  0  0  0  0  0  0  0  0999 V2000
   -3.5765   -2.9365   -0.4277 C   0  0  0  0  0
   -3.9719   -2.0564   -1.4350 C   0  0  0  0  0
   -2.7328   -2.4958    0.5920 C   0  0  0  0  0
   -6.1251    4.6861    2.3686 C   0  0  0  0  0
   -5.5940    5.6724    1.5342 C   0  0  0  0  0
   -3.5234   -0.7356   -1.4227 C   0  0  0  0  0
   -2.2844   -1.1750    0.6043 C   0  0  0  0  0
   -5.6519    3.3688    2.3204 C   0  0  0  0  0
   -4.5734    5.3801    0.6233 C   0  0  0  0  0
   -2.6797   -0.2950   -0.4031 C   0  0  0  0  0
   -4.6270    3.0573    1.4109 C   0  0  0  0  0
   -4.1179    4.0617    0.5926 C   0  0  0  0  0
    2.8556    0.7865   -0.1152 C   0  0  0  0  0
    1.5383    1.0034    0.3313 C   0  0  0  0  0
    3.6311    0.9630    1.0045 C   0  0  0  0  0
   -3.1184    2.1227    0.2235 C   0  0  0  0  0
    0.2834    0.9413   -0.4616 C   0  0  0  0  0
    5.0850    0.8818    1.2285 C   0  0  0  0  0
   -2.3271    4.0578   -1.1650 C   0  0  0  0  0
   -2.1877    1.1527   -0.3892 C   0  0  0  0  0
   -3.9939    1.8601    1.1678 N   0  0  0  0  0
    1.4765    1.2952    1.6333 N   0  0  0  0  0
    2.7648    1.2628    2.0145 N   0  0  0  0  0
   -3.1546    3.4356   -0.1563 N   0  0  0  0  0
   -0.8541    1.2008    0.2515 N   0  0  0  0  0
    3.3217    0.4635   -1.4010 N   0  0  0  0  0
    3.4313   -0.7478   -1.7375 O   0  0  0  0  0
    0.3408    0.6523   -1.6540 O   0  0  0  0  0
    3.6251    1.3885   -2.2040 O   0  0  0  0  0
  1  2  1  0  0  0
  3  7  1  0  0  0
  4  5  1  0  0  0
  6 10  1  0  0  0
  8 11  1  0  0  0
  9 12  1  0  0  0
 11 21  1  0  0  0
 12 24  1  0  0  0
 13 14  1  0  0  0
 13 26  1  0  0  0
 14 17  1  0  0  0
 15 23  1  0  0  0
 16 24  1  0  0  0
 17 25  1  0  0  0
 18 15  1  0  0  0
 19 24  1  0  0  0
 20 10  1  0  0  0
 20 16  1  0  0  0
 20 25  1  0  0  0
 23 22  1  0  0  0
 26 27  1  0  0  0
  1  3  2  0  0  0
  2  6  2  0  0  0
  4  8  2  0  0  0
  5  9  2  0  0  0
  7 10  2  0  0  0
 11 12  2  0  0  0
 13 15  2  0  0  0
 14 22  2  0  0  0
 16 21  2  0  0  0
 17 28  2  0  0  0
 26 29  2  0  0  0
M  CHG  2  26   1  27  -1
M  END
> <rmsd>
0.454419911

$$$$
ZINC16922910


 26 28  0  0  0  0  0  0  0  0999 V2000
   -4.4885   -3.2082   -0.1345 C   0  0  0  0  0
   -3.7847   -2.4135    0.7702 C   0  0  0  0  0
   -4.9936   -2.6489   -1.3082 C   0  0  0  0  0
   -3.5860   -1.0594    0.5013 C   0  0  0  0  0
   -4.7949   -1.2946   -1.5772 C   0  0  0  0  0
    1.3782   -1.6176    0.3164 C   0  0  0  0  0
   -4.0911   -0.4999   -0.6724 C   0  0  0  0  0
    1.5809   -1.0120   -0.9060 C   0  0  0  0  0
    0.1565    0.4243   -0.0586 C   0  0  0  0  0
   -3.7736    1.8404    0.0788 C   0  0  0  0  0
   -3.8048    1.3777   -2.2513 C   0  0  0  0  0
   -0.9784    2.5681   -0.7356 C   0  0  0  0  0
    3.8779   -0.9312   -1.8059 C   0  0  0  0  0
   -3.4117    3.2084   -0.4506 C   0  0  0  0  0
    2.4675   -1.5080   -1.9771 C   0  0  0  0  0
   -1.9674    3.5459   -0.1189 C   0  0  0  0  0
    0.8810    0.1587   -1.1231 N   0  0  0  0  0
   -3.8857    0.8974   -0.9497 N   0  0  0  0  0
   -0.7078    1.5259    0.1466 N   0  0  0  0  0
    4.4719   -1.2693   -0.7432 O   0  0  0  0  0
   -3.9543    1.6661    1.2817 O   0  0  0  0  0
   -3.7812    0.7650   -3.3085 O   0  0  0  0  0
   -0.5185    2.7307   -1.8610 O   0  0  0  0  0
    4.2739   -0.1901   -2.7497 O   0  0  0  0  0
    0.2695   -0.6912    1.2405 S   0  0  0  0  0
   -3.6570    3.1262   -2.2340 S   0  0  0  0  0
  1  2  1  0  0  0
  3  5  1  0  0  0
  4  7  1  0  0  0
  6 25  1  0  0  0
  7 18  1  0  0  0
  8 17  1  0  0  0
  9 19  1  0  0  0
  9 25  1  0  0  0
 10 18  1  0  0  0
 11 18  1  0  0  0
 11 26  1  0  0  0
 12 19  1  0  0  0
 13 20  1  0  0  0
 14 10  1  0  0  0
 14 16  1  0  0  0
 14 26  1  0  0  0
 15  8  1  0  0  0
 15 13  1  0  0  0
 16 12  1  0  0  0
  1  3  2  0  0  0
  2  4  2  0  0  0
  5  7  2  0  0  0
  6  8  2  0  0  0
  9 17  2  0  0  0
 10 21  2  0  0  0
 11 22  2  0  0  0
 12 23  2  0  0  0
 13 24  2  0  0  0
M  CHG  1  20  -1
M  END
> <rmsd>
0.541982889

$$$$
ZINC35397707


 27 29  0  0  0  0  0  0  0  0999 V2000
    1.0044    0.7850   -0.3094 C   0  0  0  0  0
   -2.8807   -3.1084   -0.7772 C   0  0  0  0  0
   -3.2324   -1.2081    0.6726 C   0  0  0  0  0
   -2.3867   -0.8790   -1.5665 C   0  0  0  0  0
    0.0112    2.7192   -1.2731 C   0  0  0  0  0
    2.0568    0.9144   -1.2090 C   0  0  0  0  0
   -3.2797   -2.5846    0.4524 C   0  0  0  0  0
   -2.4341   -2.2556   -1.7867 C   0  0  0  0  0
   -0.0418    1.7005   -0.3355 C   0  0  0  0  0
   -2.7858   -0.3552   -0.3369 C   0  0  0  0  0
    2.0157    1.9683   -2.1076 C   0  0  0  0  0
    3.1638   -0.0568   -1.1793 C   0  0  0  0  0
    3.8580    3.3450   -2.9825 C   0  0  0  0  0
    3.0007    1.4442   -4.3234 C   0  0  0  0  0
    5.2134    3.1123   -3.6404 C   0  0  0  0  0
    4.4018    1.3132   -4.9102 C   0  0  0  0  0
   -3.7571   -3.4964    1.5317 C   0  0  0  0  0
   -2.0072   -2.8157   -3.1013 C   0  0  0  0  0
    1.0165    2.8773   -2.1630 N   0  0  0  0  0
    3.0709    2.1048   -3.0154 N   0  0  0  0  0
   -1.1342    1.5940    0.5733 N   0  0  0  0  0
    3.0769   -1.1163   -1.9054 O   0  0  0  0  0
    4.1804    0.1868   -0.4281 O   0  0  0  0  0
   -3.6905    1.6838    0.9861 O   0  0  0  0  0
   -2.8361    2.0496   -1.3454 O   0  0  0  0  0
    5.0455    2.5861   -4.9566 O   0  0  0  0  0
   -2.7258    1.3916   -0.0577 S   0  0  0  0  0
  1  9  1  0  0  0
  2  8  1  0  0  0
  3  7  1  0  0  0
  4 10  1  0  0  0
  5 19  1  0  0  0
  6 11  1  0  0  0
  6 12  1  0  0  0
  9 21  1  0  0  0
 11 20  1  0  0  0
 12 22  1  0  0  0
 13 15  1  0  0  0
 13 20  1  0  0  0
 14 16  1  0  0  0
 14 20  1  0  0  0
 15 26  1  0  0  0
 16 26  1  0  0  0
 17  7  1  0  0  0
 18  8  1  0  0  0
 27 10  1  0  0  0
 27 21  1  0  0  0
  1  6  2  0  0  0
  2  7  2  0  0  0
  3 10  2  0  0  0
  4  8  2  0  0  0
  5  9  2  0  0  0
 11 19  2  0  0  0
 12 23  2  0  0  0
 27 24  2  0  0  0
 27 25  2  0  0  0
M  CHG  1  22  -1
M  END
> <rmsd>
0.689043462

$$$$
ZINC35397707


 27 29  0  0  0  0  0  0  0  0999 V2000
    0.8680    0.4568   -0.6594 C   0  0  0  0  0
   -3.3308   -3.1265   -0.6932 C   0  0  0  0  0
   -3.3975   -1.1891    0.7487 C   0  0  0  0  0
   -2.7439   -0.9510   -1.5650 C   0  0  0  0  0
   -0.0604    2.4522   -1.5610 C   0  0  0  0  0
    1.8378    0.4942   -1.6553 C   0  0  0  0  0
   -3.5707   -2.5600    0.5586 C   0  0  0  0  0
   -2.9173   -2.3219   -1.7550 C   0  0  0  0  0
   -0.1027    1.4508   -0.6044 C   0  0  0  0  0
   -2.9841   -0.3845   -0.3131 C   0  0  0  0  0
    1.7930    1.5383   -2.5650 C   0  0  0  0  0
    2.8650   -0.5600   -1.7115 C   0  0  0  0  0
    3.6447    2.7578   -3.6323 C   0  0  0  0  0
    2.5216    0.9154   -4.8532 C   0  0  0  0  0
    4.9102    2.4130   -4.4094 C   0  0  0  0  0
    3.8470    0.6693   -5.5655 C   0  0  0  0  0
   -4.0127   -3.4203    1.6939 C   0  0  0  0  0
   -2.6605   -2.9277   -3.0934 C   0  0  0  0  0
    0.8657    2.5219   -2.5434 N   0  0  0  0  0
    2.7652    1.5825   -3.5695 N   0  0  0  0  0
   -1.1095    1.4396    0.4040 N   0  0  0  0  0
    2.6291   -1.6172   -2.4071 O   0  0  0  0  0
    3.9635   -0.3885   -1.0627 O   0  0  0  0  0
   -3.6011    1.7328    1.0515 O   0  0  0  0  0
   -2.9447    2.0060   -1.3556 O   0  0  0  0  0
    4.5791    1.8875   -5.6946 O   0  0  0  0  0
   -2.7643    1.3551   -0.0722 S   0  0  0  0  0
  1  9  1  0  0  0
  2  8  1  0  0  0
  3  7  1  0  0  0
  4 10  1  0  0  0
  5 19  1  0  0  0
  6 11  1  0  0  0
  6 12  1  0  0  0
  9 21  1  0  0  0
 11 20  1  0  0  0
 12 22  1  0  0  0
 13 15  1  0  0  0
 13 20  1  0  0  0
 14 16  1  0  0  0
 14 20  1  0  0  0
 15 26  1  0  0  0
 16 26  1  0  0  0
 17  7  1  0  0  0
 18  8  1  0  0  0
 27 10  1  0  0  0
 27 21  1  0  0  0
  1  6  2  0  0  0
  2  7  2  0  0  0
  3 10  2  0  0  0
  4  8  2  0  0  0
  5  9  2  0  0  0
 11 19  2  0  0  0
 12 23  2  0  0  0
 27 24  2  0  0  0
 27 25  2  0  0  0
M  CHG  1  22  -1
M  END
> <rmsd>
0.509855151

$$$$
ZINC35397695


 27 29  0  0  0  0  0  0  0  0999 V2000
   -3.4348   -2.2397   -1.7862 C   0  0  0  0  0
   -3.2604   -0.8717   -1.5775 C   0  0  0  0  0
    0.8671    0.4565   -0.6596 C   0  0  0  0  0
   -3.0524   -2.6473    0.5642 C   0  0  0  0  0
   -0.0683    2.4438   -1.5718 C   0  0  0  0  0
    1.8342    0.4896   -1.6582 C   0  0  0  0  0
   -3.3309   -3.1276   -0.7153 C   0  0  0  0  0
   -2.8781   -1.2792    0.7732 C   0  0  0  0  0
   -0.1057    1.4486   -0.6085 C   0  0  0  0  0
   -2.9821   -0.3914   -0.2978 C   0  0  0  0  0
    1.7846    1.5276   -2.5746 C   0  0  0  0  0
    2.8637   -0.5626   -1.7102 C   0  0  0  0  0
    4.0005    2.2989   -3.3165 C   0  0  0  0  0
    2.3480    1.5163   -4.9906 C   0  0  0  0  0
    5.0919    1.8182   -4.2660 C   0  0  0  0  0
    3.5276    1.0778   -5.8513 C   0  0  0  0  0
   -3.5170   -4.5905   -0.9394 C   0  0  0  0  0
   -2.5810   -0.7975    2.1555 C   0  0  0  0  0
    0.8551    2.5092   -2.5570 N   0  0  0  0  0
    2.7542    1.5674   -3.5819 N   0  0  0  0  0
   -1.1099    1.4416    0.4026 N   0  0  0  0  0
    2.6284   -1.6249   -2.3983 O   0  0  0  0  0
    3.9635   -0.3844   -1.0655 O   0  0  0  0  0
   -3.6005    1.7334    1.0546 O   0  0  0  0  0
   -2.9510    1.9923   -1.3559 O   0  0  0  0  0
    4.6554    1.9217   -5.6212 O   0  0  0  0  0
   -2.7658    1.3503   -0.0688 S   0  0  0  0  0
  1  7  1  0  0  0
  2 10  1  0  0  0
  3  9  1  0  0  0
  4  8  1  0  0  0
  5 19  1  0  0  0
  6 11  1  0  0  0
  6 12  1  0  0  0
  9 21  1  0  0  0
 11 20  1  0  0  0
 12 22  1  0  0  0
 13 15  1  0  0  0
 13 20  1  0  0  0
 14 16  1  0  0  0
 14 20  1  0  0  0
 15 26  1  0  0  0
 16 26  1  0  0  0
 17  7  1  0  0  0
 18  8  1  0  0  0
 27 10  1  0  0  0
 27 21  1  0  0  0
  1  2  2  0  0  0
  3  6  2  0  0  0
  4  7  2  0  0  0
  5  9  2  0  0  0
  8 10  2  0  0  0
 11 19  2  0  0  0
 12 23  2  0  0  0
 27 24  2  0  0  0
 27 25  2  0  0  0
M  CHG  1  22  -1
M  END
> <rmsd>
0.512241185

$$$$
ZINC35397695


 27 29  0  0  0  0  0  0  0  0999 V2000
   -2.9511   -2.2116   -1.8670 C   0  0  0  0  0
   -2.9048   -0.8383   -1.6275 C   0  0  0  0  0
    1.0032    0.7871   -0.3125 C   0  0  0  0  0
   -2.7569   -2.6318    0.5042 C   0  0  0  0  0
    0.0029    2.7129   -1.2859 C   0  0  0  0  0
    2.0528    0.9132   -1.2158 C   0  0  0  0  0
   -2.8772   -3.1084   -0.8012 C   0  0  0  0  0
   -2.7106   -1.2585    0.7438 C   0  0  0  0  0
   -0.0452    1.7001   -0.3416 C   0  0  0  0  0
   -2.7845   -0.3617   -0.3221 C   0  0  0  0  0
    2.0068    1.9611   -2.1210 C   0  0  0  0  0
    3.1621   -0.0553   -1.1830 C   0  0  0  0  0
    4.2143    2.9146   -2.6436 C   0  0  0  0  0
    2.7902    2.0380   -4.4737 C   0  0  0  0  0
    5.4231    2.5371   -3.4922 C   0  0  0  0  0
    4.0751    1.7077   -5.2251 C   0  0  0  0  0
   -2.9264   -4.5770   -1.0580 C   0  0  0  0  0
   -2.5813   -0.7809    2.1532 C   0  0  0  0  0
    1.0054    2.8675   -2.1795 N   0  0  0  0  0
    3.0591    2.0942   -3.0327 N   0  0  0  0  0
   -1.1348    1.5970    0.5710 N   0  0  0  0  0
    3.0756   -1.1197   -1.9020 O   0  0  0  0  0
    4.1802    0.1953   -0.4362 O   0  0  0  0  0
   -3.6902    1.6837    0.9902 O   0  0  0  0  0
   -2.8430    2.0365   -1.3459 O   0  0  0  0  0
    5.1070    2.6317   -4.8810 O   0  0  0  0  0
   -2.7277    1.3869   -0.0543 S   0  0  0  0  0
  1  7  1  0  0  0
  2 10  1  0  0  0
  3  9  1  0  0  0
  4  8  1  0  0  0
  5 19  1  0  0  0
  6 11  1  0  0  0
  6 12  1  0  0  0
  9 21  1  0  0  0
 11 20  1  0  0  0
 12 22  1  0  0  0
 13 15  1  0  0  0
 13 20  1  0  0  0
 14 16  1  0  0  0
 14 20  1  0  0  0
 15 26  1  0  0  0
 16 26  1  0  0  0
 17  7  1  0  0  0
 18  8  1  0  0  0
 27 10  1  0  0  0
 27 21  1  0  0  0
  1  2  2  0  0  0
  3  6  2  0  0  0
  4  7  2  0  0  0
  5  9  2  0  0  0
  8 10  2  0  0  0
 11 19  2  0  0  0
 12 23  2  0  0  0
 27 24  2  0  0  0
 27 25  2  0  0  0
M  CHG  1  22  -1
M  END
> <rmsd>
0.692064881

$$$$
ZINC35397697


 27 29  0  0  0  0  0  0  0  0999 V2000
   -3.5698   -2.5594    0.5597 C   0  0  0  0  0
   -3.3975   -1.1883    0.7489 C   0  0  0  0  0
    0.8682    0.4568   -0.6594 C   0  0  0  0  0
   -2.7426   -0.9512   -1.5646 C   0  0  0  0  0
   -0.0601    2.4523   -1.5609 C   0  0  0  0  0
    1.8379    0.4941   -1.6553 C   0  0  0  0  0
   -3.3283   -3.1266   -0.6916 C   0  0  0  0  0
   -2.9148   -2.3225   -1.7537 C   0  0  0  0  0
   -0.1025    1.4509   -0.6043 C   0  0  0  0  0
   -2.9840   -0.3842   -0.3132 C   0  0  0  0  0
    1.7932    1.5383   -2.5649 C   0  0  0  0  0
    2.8649   -0.5602   -1.7115 C   0  0  0  0  0
    4.0129    2.3091   -3.2959 C   0  0  0  0  0
    2.3629    1.5416   -4.9795 C   0  0  0  0  0
    5.1055    1.8320   -4.2458 C   0  0  0  0  0
    3.5436    1.1059   -5.8400 C   0  0  0  0  0
   -3.5188   -4.5972   -0.8698 C   0  0  0  0  0
   -2.6489   -2.9074   -3.1020 C   0  0  0  0  0
    0.8660    2.5220   -2.5432 N   0  0  0  0  0
    2.7655    1.5824   -3.5694 N   0  0  0  0  0
   -1.1093    1.4397    0.4041 N   0  0  0  0  0
    2.6289   -1.6173   -2.4073 O   0  0  0  0  0
    3.9635   -0.3888   -1.0628 O   0  0  0  0  0
   -3.6008    1.7331    1.0516 O   0  0  0  0  0
   -2.9444    2.0064   -1.3555 O   0  0  0  0  0
    4.6729    1.9455   -5.6014 O   0  0  0  0  0
   -2.7641    1.3554   -0.0722 S   0  0  0  0  0
  1  7  1  0  0  0
  2 10  1  0  0  0
  3  9  1  0  0  0
  4  8  1  0  0  0
  5 19  1  0  0  0
  6 11  1  0  0  0
  6 12  1  0  0  0
  9 21  1  0  0  0
 11 20  1  0  0  0
 12 22  1  0  0  0
 13 15  1  0  0  0
 13 20  1  0  0  0
 14 16  1  0  0  0
 14 20  1  0  0  0
 15 26  1  0  0  0
 16 26  1  0  0  0
 17  7  1  0  0  0
 18  8  1  0  0  0
 27 10  1  0  0  0
 27 21  1  0  0  0
  1  2  2  0  0  0
  3  6  2  0  0  0
  4 10  2  0  0  0
  5  9  2  0  0  0
  7  8  2  0  0  0
 11 19  2  0  0  0
 12 23  2  0  0  0
 27 24  2  0  0  0
 27 25  2  0  0  0
M  CHG  1  22  -1
M  END
> <rmsd>
0.51059866

$$$$
ZINC35397697


 27 29  0  0  0  0  0  0  0  0999 V2000
   -3.2789   -2.5839    0.4535 C   0  0  0  0  0
   -3.2325   -1.2073    0.6728 C   0  0  0  0  0
    1.0045    0.7849   -0.3093 C   0  0  0  0  0
   -2.3854   -0.8791   -1.5660 C   0  0  0  0  0
    0.0116    2.7194   -1.2728 C   0  0  0  0  0
    2.0569    0.9144   -1.2088 C   0  0  0  0  0
   -2.8784   -3.1084   -0.7755 C   0  0  0  0  0
   -2.4317   -2.2559   -1.7852 C   0  0  0  0  0
   -0.0416    1.7005   -0.3354 C   0  0  0  0  0
   -2.7858   -0.3548   -0.3370 C   0  0  0  0  0
    2.0160    1.9683   -2.1073 C   0  0  0  0  0
    3.1639   -0.0570   -1.1792 C   0  0  0  0  0
    4.2272    2.9199   -2.6175 C   0  0  0  0  0
    2.8062    2.0586   -4.4573 C   0  0  0  0  0
    5.4375    2.5451   -3.4651 C   0  0  0  0  0
    4.0924    1.7302   -5.2072 C   0  0  0  0  0
   -2.9362   -4.5857   -0.9866 C   0  0  0  0  0
   -1.9965   -2.7944   -3.1086 C   0  0  0  0  0
    1.0169    2.8774   -2.1627 N   0  0  0  0  0
    3.0712    2.1048   -3.0151 N   0  0  0  0  0
   -1.1340    1.5941    0.5735 N   0  0  0  0  0
    3.0769   -1.1164   -1.9054 O   0  0  0  0  0
    4.1805    0.1864   -0.4280 O   0  0  0  0  0
   -3.6903    1.6841    0.9862 O   0  0  0  0  0
   -2.8358    2.0501   -1.3452 O   0  0  0  0  0
    5.1255    2.6495   -4.8542 O   0  0  0  0  0
   -2.7256    1.3919   -0.0576 S   0  0  0  0  0
  1  7  1  0  0  0
  2 10  1  0  0  0
  3  9  1  0  0  0
  4  8  1  0  0  0
  5 19  1  0  0  0
  6 11  1  0  0  0
  6 12  1  0  0  0
  9 21  1  0  0  0
 11 20  1  0  0  0
 12 22  1  0  0  0
 13 15  1  0  0  0
 13 20  1  0  0  0
 14 16  1  0  0  0
 14 20  1  0  0  0
 15 26  1  0  0  0
 16 26  1  0  0  0
 17  7  1  0  0  0
 18  8  1  0  0  0
 27 10  1  0  0  0
 27 21  1  0  0  0
  1  2  2  0  0  0
  3  6  2  0  0  0
  4 10  2  0  0  0
  5  9  2  0  0  0
  7  8  2  0  0  0
 11 19  2  0  0  0
 12 23  2  0  0  0
 27 24  2  0  0  0
 27 25  2  0  0  0
M  CHG  1  22  -1
M  END
> <rmsd>
0.689696729

$$$$
ZINC64843433


 27 29  0  0  0  0  0  0  0  0999 V2000
   -3.2792   -2.5852    0.4525 C   0  0  0  0  0
   -2.4332   -2.2555   -1.7863 C   0  0  0  0  0
   -3.2323   -1.2086    0.6730 C   0  0  0  0  0
   -2.3864   -0.8789   -1.5660 C   0  0  0  0  0
    1.0043    0.7846   -0.3092 C   0  0  0  0  0
    0.0110    2.7188   -1.2731 C   0  0  0  0  0
    2.0566    0.9140   -1.2089 C   0  0  0  0  0
   -2.8795   -3.1086   -0.7771 C   0  0  0  0  0
   -0.0419    1.7002   -0.3354 C   0  0  0  0  0
   -2.7859   -0.3555   -0.3363 C   0  0  0  0  0
    2.0154    1.9677   -2.1076 C   0  0  0  0  0
    3.1636   -0.0572   -1.1792 C   0  0  0  0  0
    4.2265    2.9194   -2.6182 C   0  0  0  0  0
    2.8055    2.0576   -4.4577 C   0  0  0  0  0
    5.4368    2.5446   -3.4659 C   0  0  0  0  0
    4.0916    1.7292   -5.2076 C   0  0  0  0  0
   -1.6250   -5.2738   -0.6212 C   0  0  0  0  0
   -2.9274   -4.5804   -1.0123 C   0  0  0  0  0
    1.0163    2.8768   -2.1631 N   0  0  0  0  0
    3.0706    2.1042   -3.0156 N   0  0  0  0  0
   -1.1343    1.5938    0.5735 N   0  0  0  0  0
    3.0767   -1.1168   -1.9051 O   0  0  0  0  0
    4.1803    0.1864   -0.4281 O   0  0  0  0  0
   -3.6906    1.6836    0.9864 O   0  0  0  0  0
   -2.8363    2.0492   -1.3451 O   0  0  0  0  0
    5.1247    2.6486   -4.8549 O   0  0  0  0  0
   -2.7259    1.3913   -0.0574 S   0  0  0  0  0
  1  8  1  0  0  0
  2  4  1  0  0  0
  3 10  1  0  0  0
  5  9  1  0  0  0
  6 19  1  0  0  0
  7 11  1  0  0  0
  7 12  1  0  0  0
  9 21  1  0  0  0
 11 20  1  0  0  0
 12 22  1  0  0  0
 13 15  1  0  0  0
 13 20  1  0  0  0
 14 16  1  0  0  0
 14 20  1  0  0  0
 15 26  1  0  0  0
 16 26  1  0  0  0
 17 18  1  0  0  0
 18  8  1  0  0  0
 27 10  1  0  0  0
 27 21  1  0  0  0
  1  3  2  0  0  0
  2  8  2  0  0  0
  4 10  2  0  0  0
  5  7  2  0  0  0
  6  9  2  0  0  0
 11 19  2  0  0  0
 12 23  2  0  0  0
 27 24  2  0  0  0
 27 25  2  0  0  0
M  CHG  1  22  -1
M  END
> <rmsd>
0.689505041

$$$$
ZINC64843433


 27 29  0  0  0  0  0  0  0  0999 V2000
   -3.5703   -2.5607    0.5588 C   0  0  0  0  0
   -2.9163   -2.3220   -1.7547 C   0  0  0  0  0
   -3.3975   -1.1897    0.7491 C   0  0  0  0  0
   -2.7436   -0.9510   -1.5645 C   0  0  0  0  0
    0.8679    0.4565   -0.6592 C   0  0  0  0  0
   -0.0606    2.4517   -1.5610 C   0  0  0  0  0
    1.8375    0.4937   -1.6552 C   0  0  0  0  0
   -3.3296   -3.1268   -0.6930 C   0  0  0  0  0
   -0.1028    1.4504   -0.6043 C   0  0  0  0  0
   -2.9842   -0.3848   -0.3125 C   0  0  0  0  0
    1.7927    1.5377   -2.5650 C   0  0  0  0  0
    2.8648   -0.5605   -1.7113 C   0  0  0  0  0
    4.0123    2.3086   -3.2963 C   0  0  0  0  0
    2.3622    1.5405   -4.9796 C   0  0  0  0  0
    5.1049    1.8314   -4.2462 C   0  0  0  0  0
    3.5430    1.1048   -5.8401 C   0  0  0  0  0
   -2.2356   -5.3815   -0.6158 C   0  0  0  0  0
   -3.5121   -4.5928   -0.8963 C   0  0  0  0  0
    0.8654    2.5213   -2.5435 N   0  0  0  0  0
    2.7649    1.5817   -3.5696 N   0  0  0  0  0
   -1.1096    1.4393    0.4042 N   0  0  0  0  0
    2.6288   -1.6178   -2.4068 O   0  0  0  0  0
    3.9634   -0.3889   -1.0626 O   0  0  0  0  0
   -3.6011    1.7327    1.0518 O   0  0  0  0  0
   -2.9449    2.0055   -1.3554 O   0  0  0  0  0
    4.6721    1.9446   -5.6018 O   0  0  0  0  0
   -2.7644    1.3548   -0.0719 S   0  0  0  0  0
  1  8  1  0  0  0
  2  4  1  0  0  0
  3 10  1  0  0  0
  5  9  1  0  0  0
  6 19  1  0  0  0
  7 11  1  0  0  0
  7 12  1  0  0  0
  9 21  1  0  0  0
 11 20  1  0  0  0
 12 22  1  0  0  0
 13 15  1  0  0  0
 13 20  1  0  0  0
 14 16  1  0  0  0
 14 20  1  0  0  0
 15 26  1  0  0  0
 16 26  1  0  0  0
 17 18  1  0  0  0
 18  8  1  0  0  0
 27 10  1  0  0  0
 27 21  1  0  0  0
  1  3  2  0  0  0
  2  8  2  0  0  0
  4 10  2  0  0  0
  5  7  2  0  0  0
  6  9  2  0  0  0
 11 19  2  0  0  0
 12 23  2  0  0  0
 27 24  2  0  0  0
 27 25  2  0  0  0
M  CHG  1  22  -1
M  END
> <rmsd>
0.5102548

$$$$
ZINC35397655


 27 28  0  0  0  0  0  0  0  0999 V2000
   -3.5689   -2.5616    0.5526 C   0  0  0  0  0
   -2.9142   -2.3207   -1.7604 C   0  0  0  0  0
   -3.3966   -1.1908    0.7443 C   0  0  0  0  0
   -2.7419   -0.9497   -1.5689 C   0  0  0  0  0
    0.8693    0.4547   -0.6673 C   0  0  0  0  0
   -0.0889    2.4170   -1.6097 C   0  0  0  0  0
    1.8279    0.4760   -1.6742 C   0  0  0  0  0
   -3.3278   -3.1265   -0.6997 C   0  0  0  0  0
   -0.1108    1.4402   -0.6273 C   0  0  0  0  0
   -2.9831   -0.3848   -0.3165 C   0  0  0  0  0
    1.7629    1.4958   -2.6099 C   0  0  0  0  0
    2.8651   -0.5691   -1.7145 C   0  0  0  0  0
    1.7944    1.7118   -5.8633 C   0  0  0  0  0
    3.7758    3.7110   -3.7176 C   0  0  0  0  0
   -2.1992   -5.2992   -1.2991 C   0  0  0  0  0
   -4.6068   -4.9112   -1.9378 C   0  0  0  0  0
    2.4968    0.8320   -4.8861 C   0  0  0  0  0
    3.9695    2.2564   -3.4541 C   0  0  0  0  0
   -3.5098   -4.5924   -0.9043 C   0  0  0  0  0
    0.8259    2.4704   -2.6036 N   0  0  0  0  0
   -1.1158    1.4451    0.4014 N   0  0  0  0  0
    2.7367    1.5239   -3.6395 N   0  0  0  0  0
    2.6326   -1.6462   -2.3802 O   0  0  0  0  0
    3.9688   -0.3699   -1.0824 O   0  0  0  0  0
   -3.5951    1.7298    1.0545 O   0  0  0  0  0
   -2.9520    2.0074   -1.3556 O   0  0  0  0  0
   -2.7669    1.3311   -0.0774 S   0  0  0  0  0
  1  8  1  0  0  0
  2  4  1  0  0  0
  3 10  1  0  0  0
  5  9  1  0  0  0
  6 20  1  0  0  0
  7 11  1  0  0  0
  7 12  1  0  0  0
  9 21  1  0  0  0
 11 22  1  0  0  0
 12 23  1  0  0  0
 13 17  1  0  0  0
 14 18  1  0  0  0
 15 19  1  0  0  0
 16 19  1  0  0  0
 17 22  1  0  0  0
 18 22  1  0  0  0
 19  8  1  0  0  0
 27 10  1  0  0  0
 27 21  1  0  0  0
  1  3  2  0  0  0
  2  8  2  0  0  0
  4 10  2  0  0  0
  5  7  2  0  0  0
  6  9  2  0  0  0
 11 20  2  0  0  0
 12 24  2  0  0  0
 27 25  2  0  0  0
 27 26  2  0  0  0
M  CHG  1  23  -1
M  END
> <rmsd>
0.51322335

$$$$
ZINC35397655


 27 28  0  0  0  0  0  0  0  0999 V2000
   -3.2691   -2.5866    0.4416 C   0  0  0  0  0
   -2.4300   -2.2487   -1.7986 C   0  0  0  0  0
   -3.2253   -1.2107    0.6657 C   0  0  0  0  0
   -2.3863   -0.8726   -1.5746 C   0  0  0  0  0
    1.0046    0.7936   -0.3289 C   0  0  0  0  0
   -0.0192    2.6927   -1.3298 C   0  0  0  0  0
    2.0453    0.9104   -1.2436 C   0  0  0  0  0
   -2.8715   -3.1057   -0.7905 C   0  0  0  0  0
   -0.0510    1.6978   -0.3661 C   0  0  0  0  0
   -2.7839   -0.3536   -0.3424 C   0  0  0  0  0
    1.9832    1.9405   -2.1682 C   0  0  0  0  0
    3.1624   -0.0487   -1.2022 C   0  0  0  0  0
    2.2903    2.2234   -5.4021 C   0  0  0  0  0
    3.9034    4.3290   -3.0589 C   0  0  0  0  0
   -1.5228   -5.1703   -1.3119 C   0  0  0  0  0
   -3.8864   -4.9605   -2.1630 C   0  0  0  0  0
    2.9701    1.3822   -4.3761 C   0  0  0  0  0
    4.1887    2.8892   -2.7974 C   0  0  0  0  0
   -2.9161   -4.5769   -1.0296 C   0  0  0  0  0
    0.9743    2.8379   -2.2352 N   0  0  0  0  0
   -1.1418    1.6029    0.5664 N   0  0  0  0  0
    3.0404    2.0658   -3.1041 N   0  0  0  0  0
    3.0780   -1.1272   -1.9000 O   0  0  0  0  0
    4.1850    0.2241   -0.4694 O   0  0  0  0  0
   -3.6847    1.6784    0.9937 O   0  0  0  0  0
   -2.8513    2.0539   -1.3437 O   0  0  0  0  0
   -2.7285    1.3689   -0.0627 S   0  0  0  0  0
  1  8  1  0  0  0
  2  4  1  0  0  0
  3 10  1  0  0  0
  5  9  1  0  0  0
  6 20  1  0  0  0
  7 11  1  0  0  0
  7 12  1  0  0  0
  9 21  1  0  0  0
 11 22  1  0  0  0
 12 23  1  0  0  0
 13 17  1  0  0  0
 14 18  1  0  0  0
 15 19  1  0  0  0
 16 19  1  0  0  0
 17 22  1  0  0  0
 18 22  1  0  0  0
 19  8  1  0  0  0
 27 10  1  0  0  0
 27 21  1  0  0  0
  1  3  2  0  0  0
  2  8  2  0  0  0
  4 10  2  0  0  0
  5  7  2  0  0  0
  6  9  2  0  0  0
 11 20  2  0  0  0
 12 24  2  0  0  0
 27 25  2  0  0  0
 27 26  2  0  0  0
M  CHG  1  23  -1
M  END
> <rmsd>
0.695402503

$$$$
ZINC35397274


 27 28  0  0  0  0  0  0  0  0999 V2000
    1.0042    0.7858   -0.3092 C   0  0  0  0  0
   -2.8807   -3.1081   -0.7762 C   0  0  0  0  0
   -3.2324   -1.2076    0.6734 C   0  0  0  0  0
   -2.3869   -0.8787   -1.5658 C   0  0  0  0  0
    0.0107    2.7197   -1.2732 C   0  0  0  0  0
    2.0564    0.9152   -1.2088 C   0  0  0  0  0
   -3.2796   -2.5841    0.4534 C   0  0  0  0  0
   -2.4342   -2.2553   -1.7858 C   0  0  0  0  0
   -0.0421    1.7011   -0.3354 C   0  0  0  0  0
   -2.7860   -0.3548   -0.3363 C   0  0  0  0  0
    2.0152    1.9689   -2.1077 C   0  0  0  0  0
    3.1636   -0.0559   -1.1791 C   0  0  0  0  0
   -3.7568   -3.4958    1.5329 C   0  0  0  0  0
   -2.0074   -2.8156   -3.1003 C   0  0  0  0  0
    1.5443    2.4474   -7.7487 C   0  0  0  0  0
    4.2443    2.9136   -2.6538 C   0  0  0  0  0
    2.3013    1.6117   -6.7282 C   0  0  0  0  0
    2.3515    2.3051   -5.3649 C   0  0  0  0  0
    3.0531    1.4629   -4.3047 C   0  0  0  0  0
    1.0160    2.8778   -2.1632 N   0  0  0  0  0
   -1.1344    1.5947    0.5734 N   0  0  0  0  0
    3.0754    2.1060   -3.0201 N   0  0  0  0  0
    3.0768   -1.1154   -1.9050 O   0  0  0  0  0
    4.1802    0.1879   -0.4280 O   0  0  0  0  0
   -3.6908    1.6843    0.9864 O   0  0  0  0  0
   -2.8366    2.0499   -1.3451 O   0  0  0  0  0
   -2.7262    1.3920   -0.0573 S   0  0  0  0  0
  1  9  1  0  0  0
  2  7  1  0  0  0
  3 10  1  0  0  0
  4  8  1  0  0  0
  5 20  1  0  0  0
  6 11  1  0  0  0
  6 12  1  0  0  0
  9 21  1  0  0  0
 11 22  1  0  0  0
 12 23  1  0  0  0
 13  7  1  0  0  0
 14  8  1  0  0  0
 15 17  1  0  0  0
 16 22  1  0  0  0
 17 18  1  0  0  0
 18 19  1  0  0  0
 19 22  1  0  0  0
 27 10  1  0  0  0
 27 21  1  0  0  0
  1  6  2  0  0  0
  2  8  2  0  0  0
  3  7  2  0  0  0
  4 10  2  0  0  0
  5  9  2  0  0  0
 11 20  2  0  0  0
 12 24  2  0  0  0
 27 25  2  0  0  0
 27 26  2  0  0  0
M  CHG  1  23  -1
M  END
> <rmsd>
0.689039767

$$$$
ZINC35397274


 27 28  0  0  0  0  0  0  0  0999 V2000
    0.8680    0.4574   -0.6592 C   0  0  0  0  0
   -3.3306   -3.1262   -0.6921 C   0  0  0  0  0
   -3.3973   -1.1886    0.7495 C   0  0  0  0  0
   -2.7439   -0.9508   -1.5643 C   0  0  0  0  0
   -0.0606    2.4526   -1.5611 C   0  0  0  0  0
    1.8376    0.4947   -1.6550 C   0  0  0  0  0
   -3.5705   -2.5595    0.5597 C   0  0  0  0  0
   -2.9172   -2.3218   -1.7541 C   0  0  0  0  0
   -0.1028    1.4513   -0.6043 C   0  0  0  0  0
   -2.9840   -0.3842   -0.3125 C   0  0  0  0  0
    1.7928    1.5387   -2.5650 C   0  0  0  0  0
    2.8649   -0.5595   -1.7111 C   0  0  0  0  0
   -4.0123   -3.4197    1.6951 C   0  0  0  0  0
   -2.6604   -2.9278   -3.0924 C   0  0  0  0  0
    0.8304    1.9919   -8.1453 C   0  0  0  0  0
    4.0264    2.3007   -3.3332 C   0  0  0  0  0
    1.6140    1.1107   -7.1849 C   0  0  0  0  0
    1.8454    1.8127   -5.8449 C   0  0  0  0  0
    2.5772    0.9297   -4.8396 C   0  0  0  0  0
    0.8654    2.5222   -2.5435 N   0  0  0  0  0
   -1.1095    1.4401    0.4041 N   0  0  0  0  0
    2.7697    1.5829   -3.5745 N   0  0  0  0  0
    2.6291   -1.6167   -2.4065 O   0  0  0  0  0
    3.9636   -0.3877   -1.0624 O   0  0  0  0  0
   -3.6011    1.7334    1.0518 O   0  0  0  0  0
   -2.9449    2.0062   -1.3554 O   0  0  0  0  0
   -2.7644    1.3555   -0.0719 S   0  0  0  0  0
  1  9  1  0  0  0
  2  7  1  0  0  0
  3 10  1  0  0  0
  4  8  1  0  0  0
  5 20  1  0  0  0
  6 11  1  0  0  0
  6 12  1  0  0  0
  9 21  1  0  0  0
 11 22  1  0  0  0
 12 23  1  0  0  0
 13  7  1  0  0  0
 14  8  1  0  0  0
 15 17  1  0  0  0
 16 22  1  0  0  0
 17 18  1  0  0  0
 18 19  1  0  0  0
 19 22  1  0  0  0
 27 10  1  0  0  0
 27 21  1  0  0  0
  1  6  2  0  0  0
  2  8  2  0  0  0
  3  7  2  0  0  0
  4 10  2  0  0  0
  5  9  2  0  0  0
 11 20  2  0  0  0
 12 24  2  0  0  0
 27 25  2  0  0  0
 27 26  2  0  0  0
M  CHG  1  23  -1
M  END
> <rmsd>
0.510063112

$$$$
ZINC35397377


 27 28  0  0  0  0  0  0  0  0999 V2000
   -3.2792   -2.5844    0.4525 C   0  0  0  0  0
   -2.4334   -2.2549   -1.7866 C   0  0  0  0  0
   -3.2324   -1.2079    0.6727 C   0  0  0  0  0
   -2.3867   -0.8783   -1.5663 C   0  0  0  0  0
    1.0040    0.7856   -0.3101 C   0  0  0  0  0
    0.0105    2.7196   -1.2740 C   0  0  0  0  0
    2.0562    0.9150   -1.2098 C   0  0  0  0  0
   -2.8797   -3.1079   -0.7772 C   0  0  0  0  0
   -0.0422    1.7010   -0.3362 C   0  0  0  0  0
   -2.7861   -0.3549   -0.3366 C   0  0  0  0  0
    2.0149    1.9686   -2.1086 C   0  0  0  0  0
    3.1633   -0.0561   -1.1801 C   0  0  0  0  0
   -2.9276   -4.5798   -1.0123 C   0  0  0  0  0
    2.1703    1.5851   -6.6882 C   0  0  0  0  0
    5.2747    5.2387   -2.7052 C   0  0  0  0  0
    2.2238    2.2593   -5.3247 C   0  0  0  0  0
    4.0637    4.3860   -3.0560 C   0  0  0  0  0
    3.0467    1.4735   -4.3110 C   0  0  0  0  0
    4.2379    2.9246   -2.6606 C   0  0  0  0  0
    1.0157    2.8776   -2.1640 N   0  0  0  0  0
   -1.1346    1.5946    0.5728 N   0  0  0  0  0
    3.0751    2.1057   -3.0212 N   0  0  0  0  0
    3.0764   -1.1158   -1.9060 O   0  0  0  0  0
    4.1801    0.1876   -0.4291 O   0  0  0  0  0
   -3.6908    1.6844    0.9860 O   0  0  0  0  0
   -2.8368    2.0499   -1.3456 O   0  0  0  0  0
   -2.7263    1.3920   -0.0579 S   0  0  0  0  0
  1  8  1  0  0  0
  2  4  1  0  0  0
  3 10  1  0  0  0
  5  9  1  0  0  0
  6 20  1  0  0  0
  7 11  1  0  0  0
  7 12  1  0  0  0
  9 21  1  0  0  0
 11 22  1  0  0  0
 12 23  1  0  0  0
 13  8  1  0  0  0
 14 16  1  0  0  0
 15 17  1  0  0  0
 16 18  1  0  0  0
 17 19  1  0  0  0
 18 22  1  0  0  0
 19 22  1  0  0  0
 27 10  1  0  0  0
 27 21  1  0  0  0
  1  3  2  0  0  0
  2  8  2  0  0  0
  4 10  2  0  0  0
  5  7  2  0  0  0
  6  9  2  0  0  0
 11 20  2  0  0  0
 12 24  2  0  0  0
 27 25  2  0  0  0
 27 26  2  0  0  0
M  CHG  1  23  -1
M  END
> <rmsd>
0.689483464

$$$$
ZINC35397377


 27 28  0  0  0  0  0  0  0  0999 V2000
   -3.5702   -2.5598    0.5588 C   0  0  0  0  0
   -2.9164   -2.3213   -1.7549 C   0  0  0  0  0
   -3.3976   -1.1889    0.7489 C   0  0  0  0  0
   -2.7438   -0.9503   -1.5647 C   0  0  0  0  0
    0.8676    0.4575   -0.6598 C   0  0  0  0  0
   -0.0611    2.4526   -1.5617 C   0  0  0  0  0
    1.8372    0.4947   -1.6557 C   0  0  0  0  0
   -3.3296   -3.1261   -0.6932 C   0  0  0  0  0
   -0.1031    1.4514   -0.6049 C   0  0  0  0  0
   -2.9843   -0.3842   -0.3128 C   0  0  0  0  0
    1.7922    1.5387   -2.5656 C   0  0  0  0  0
    2.8645   -0.5594   -1.7118 C   0  0  0  0  0
   -3.5121   -4.5922   -0.8963 C   0  0  0  0  0
    1.4857    1.0951   -7.1322 C   0  0  0  0  0
    5.2223    4.5381   -3.5219 C   0  0  0  0  0
    1.7188    1.7777   -5.7919 C   0  0  0  0  0
    3.9219    3.7787   -3.7431 C   0  0  0  0  0
    2.5710    0.9410   -4.8453 C   0  0  0  0  0
    4.0201    2.3125   -3.3393 C   0  0  0  0  0
    0.8649    2.5222   -2.5441 N   0  0  0  0  0
   -1.1099    1.4402    0.4037 N   0  0  0  0  0
    2.7691    1.5828   -3.5753 N   0  0  0  0  0
    2.6286   -1.6167   -2.4072 O   0  0  0  0  0
    3.9632   -0.3876   -1.0632 O   0  0  0  0  0
   -3.6014    1.7335    1.0514 O   0  0  0  0  0
   -2.9454    2.0062   -1.3558 O   0  0  0  0  0
   -2.7648    1.3556   -0.0724 S   0  0  0  0  0
  1  8  1  0  0  0
  2  4  1  0  0  0
  3 10  1  0  0  0
  5  9  1  0  0  0
  6 20  1  0  0  0
  7 11  1  0  0  0
  7 12  1  0  0  0
  9 21  1  0  0  0
 11 22  1  0  0  0
 12 23  1  0  0  0
 13  8  1  0  0  0
 14 16  1  0  0  0
 15 17  1  0  0  0
 16 18  1  0  0  0
 17 19  1  0  0  0
 18 22  1  0  0  0
 19 22  1  0  0  0
 27 10  1  0  0  0
 27 21  1  0  0  0
  1  3  2  0  0  0
  2  8  2  0  0  0
  4 10  2  0  0  0
  5  7  2  0  0  0
  6  9  2  0  0  0
 11 20  2  0  0  0
 12 24  2  0  0  0
 27 25  2  0  0  0
 27 26  2  0  0  0
M  CHG  1  23  -1
M  END
> <rmsd>
0.510208726

$$$$
ZINC35397672


 27 28  0  0  0  0  0  0  0  0999 V2000
    0.8676    0.4554   -0.6675 C   0  0  0  0  0
   -3.0509   -2.6480    0.5578 C   0  0  0  0  0
   -3.2581   -0.8704   -1.5823 C   0  0  0  0  0
   -0.0936    2.4133   -1.6159 C   0  0  0  0  0
    1.8249    0.4738   -1.6758 C   0  0  0  0  0
   -3.3277   -3.1272   -0.7225 C   0  0  0  0  0
   -2.8778   -1.2800    0.7682 C   0  0  0  0  0
   -3.4313   -2.2385   -1.7927 C   0  0  0  0  0
   -0.1134    1.4401   -0.6298 C   0  0  0  0  0
   -2.9814   -0.3912   -0.3019 C   0  0  0  0  0
    1.7578    1.4902   -2.6151 C   0  0  0  0  0
    2.8630   -0.5704   -1.7135 C   0  0  0  0  0
   -3.5093   -4.5960   -0.9235 C   0  0  0  0  0
   -2.5816   -0.7992    2.1512 C   0  0  0  0  0
   -3.7272   -2.7287   -3.1721 C   0  0  0  0  0
    1.7850    1.6944   -5.8692 C   0  0  0  0  0
    3.7673    3.7030   -3.7335 C   0  0  0  0  0
    2.4894    0.8186   -4.8898 C   0  0  0  0  0
    3.9626    2.2497   -3.4648 C   0  0  0  0  0
    0.8199    2.4639   -2.6111 N   0  0  0  0  0
   -1.1170    1.4479    0.4001 N   0  0  0  0  0
    2.7303    1.5155   -3.6461 N   0  0  0  0  0
    2.6306   -1.6501   -2.3750 O   0  0  0  0  0
    3.9673   -0.3681   -1.0836 O   0  0  0  0  0
   -3.5957    1.7307    1.0568 O   0  0  0  0  0
   -2.9584    1.9943   -1.3565 O   0  0  0  0  0
   -2.7685    1.3308   -0.0739 S   0  0  0  0  0
  1  9  1  0  0  0
  2  7  1  0  0  0
  3 10  1  0  0  0
  4 20  1  0  0  0
  5 11  1  0  0  0
  5 12  1  0  0  0
  6  8  1  0  0  0
  9 21  1  0  0  0
 11 22  1  0  0  0
 12 23  1  0  0  0
 13  6  1  0  0  0
 14  7  1  0  0  0
 15  8  1  0  0  0
 16 18  1  0  0  0
 17 19  1  0  0  0
 18 22  1  0  0  0
 19 22  1  0  0  0
 27 10  1  0  0  0
 27 21  1  0  0  0
  1  5  2  0  0  0
  2  6  2  0  0  0
  3  8  2  0  0  0
  4  9  2  0  0  0
  7 10  2  0  0  0
 11 20  2  0  0  0
 12 24  2  0  0  0
 27 25  2  0  0  0
 27 26  2  0  0  0
M  CHG  1  23  -1
M  END
> <rmsd>
0.515803874

$$$$
ZINC35397672


 27 28  0  0  0  0  0  0  0  0999 V2000
    1.0030    0.7949   -0.3302 C   0  0  0  0  0
   -2.7475   -2.6321    0.4923 C   0  0  0  0  0
   -2.9038   -0.8336   -1.6346 C   0  0  0  0  0
   -0.0234    2.6896   -1.3369 C   0  0  0  0  0
    2.0424    0.9090   -1.2467 C   0  0  0  0  0
   -2.8687   -3.1057   -0.8141 C   0  0  0  0  0
   -2.7046   -1.2592    0.7353 C   0  0  0  0  0
   -2.9468   -2.2065   -1.8776 C   0  0  0  0  0
   -0.0534    1.6981   -0.3695 C   0  0  0  0  0
   -2.7827   -0.3600   -0.3282 C   0  0  0  0  0
    1.9786    1.9357   -2.1750 C   0  0  0  0  0
    3.1604   -0.0490   -1.2031 C   0  0  0  0  0
   -2.9129   -4.5799   -1.0498 C   0  0  0  0  0
   -2.5735   -0.7846    2.1457 C   0  0  0  0  0
   -3.0772   -2.6905   -3.2845 C   0  0  0  0  0
    2.2816    2.2071   -5.4101 C   0  0  0  0  0
    3.8960    4.3223   -3.0766 C   0  0  0  0  0
    2.9633    1.3701   -4.3819 C   0  0  0  0  0
    4.1826    2.8838   -2.8102 C   0  0  0  0  0
    0.9689    2.8321   -2.2439 N   0  0  0  0  0
   -1.1429    1.6059    0.5647 N   0  0  0  0  0
    3.0346    2.0584   -3.1125 N   0  0  0  0  0
    3.0759   -1.1302   -1.8969 O   0  0  0  0  0
    4.1837    0.2270   -0.4725 O   0  0  0  0  0
   -3.6852    1.6790    0.9962 O   0  0  0  0  0
   -2.8568    2.0407   -1.3453 O   0  0  0  0  0
   -2.7302    1.3685   -0.0594 S   0  0  0  0  0
  1  9  1  0  0  0
  2  7  1  0  0  0
  3 10  1  0  0  0
  4 20  1  0  0  0
  5 11  1  0  0  0
  5 12  1  0  0  0
  6  8  1  0  0  0
  9 21  1  0  0  0
 11 22  1  0  0  0
 12 23  1  0  0  0
 13  6  1  0  0  0
 14  7  1  0  0  0
 15  8  1  0  0  0
 16 18  1  0  0  0
 17 19  1  0  0  0
 18 22  1  0  0  0
 19 22  1  0  0  0
 27 10  1  0  0  0
 27 21  1  0  0  0
  1  5  2  0  0  0
  2  6  2  0  0  0
  3  8  2  0  0  0
  4  9  2  0  0  0
  7 10  2  0  0  0
 11 20  2  0  0  0
 12 24  2  0  0  0
 27 25  2  0  0  0
 27 26  2  0  0  0
M  CHG  1  23  -1
M  END
> <rmsd>
0.698742926

$$$$
ZINC35397390


 27 28  0  0  0  0  0  0  0  0999 V2000
   -2.8753   -3.1080   -0.8024 C   0  0  0  0  0
   -2.9493   -2.2111   -1.8681 C   0  0  0  0  0
   -2.7560   -2.6316    0.5032 C   0  0  0  0  0
   -2.9040   -0.8377   -1.6282 C   0  0  0  0  0
    1.0029    0.7876   -0.3133 C   0  0  0  0  0
    0.0026    2.7134   -1.2866 C   0  0  0  0  0
    2.0524    0.9136   -1.2166 C   0  0  0  0  0
   -2.7108   -1.2582    0.7430 C   0  0  0  0  0
   -0.0454    1.7005   -0.3423 C   0  0  0  0  0
   -2.7847   -0.3613   -0.3227 C   0  0  0  0  0
    2.0064    1.9616   -2.1218 C   0  0  0  0  0
    3.1618   -0.0548   -1.1839 C   0  0  0  0  0
   -2.5814   -0.7806    2.1527 C   0  0  0  0  0
    4.2360    4.8198   -2.5933 C   0  0  0  0  0
    1.8809    0.6025   -6.3737 C   0  0  0  0  0
    5.0045    3.6069   -3.0987 C   0  0  0  0  0
    2.1512    0.6962   -4.8788 C   0  0  0  0  0
    4.4191    2.2902   -2.6027 C   0  0  0  0  0
    2.7873    2.0216   -4.4771 C   0  0  0  0  0
    1.0051    2.8681   -2.1802 N   0  0  0  0  0
   -1.1350    1.5974    0.5703 N   0  0  0  0  0
    3.0639    2.0953   -3.0381 N   0  0  0  0  0
    3.0753   -1.1192   -1.9029 O   0  0  0  0  0
    4.1800    0.1958   -0.4371 O   0  0  0  0  0
   -3.6903    1.6841    0.9897 O   0  0  0  0  0
   -2.8433    2.0370   -1.3464 O   0  0  0  0  0
   -2.7280    1.3874   -0.0550 S   0  0  0  0  0
  1  2  1  0  0  0
  3  8  1  0  0  0
  4 10  1  0  0  0
  5  9  1  0  0  0
  6 20  1  0  0  0
  7 11  1  0  0  0
  7 12  1  0  0  0
  9 21  1  0  0  0
 11 22  1  0  0  0
 12 23  1  0  0  0
 13  8  1  0  0  0
 14 16  1  0  0  0
 15 17  1  0  0  0
 16 18  1  0  0  0
 17 19  1  0  0  0
 18 22  1  0  0  0
 19 22  1  0  0  0
 27 10  1  0  0  0
 27 21  1  0  0  0
  1  3  2  0  0  0
  2  4  2  0  0  0
  5  7  2  0  0  0
  6  9  2  0  0  0
  8 10  2  0  0  0
 11 20  2  0  0  0
 12 24  2  0  0  0
 27 25  2  0  0  0
 27 26  2  0  0  0
M  CHG  1  23  -1
M  END
> <rmsd>
0.692668736

$$$$
ZINC35397390


 27 28  0  0  0  0  0  0  0  0999 V2000
   -3.3289   -3.1273   -0.7167 C   0  0  0  0  0
   -3.4329   -2.2394   -1.7874 C   0  0  0  0  0
   -3.0517   -2.6470    0.5632 C   0  0  0  0  0
   -3.2596   -0.8712   -1.5782 C   0  0  0  0  0
    0.8669    0.4570   -0.6602 C   0  0  0  0  0
   -0.0686    2.4443   -1.5724 C   0  0  0  0  0
    1.8338    0.4901   -1.6588 C   0  0  0  0  0
   -2.8784   -1.2789    0.7724 C   0  0  0  0  0
   -0.1060    1.4491   -0.6091 C   0  0  0  0  0
   -2.9823   -0.3910   -0.2983 C   0  0  0  0  0
    1.7843    1.5283   -2.5752 C   0  0  0  0  0
    2.8634   -0.5620   -1.7108 C   0  0  0  0  0
   -2.5812   -0.7970    2.1550 C   0  0  0  0  0
    4.1737    4.1971   -3.3035 C   0  0  0  0  0
    1.1570    0.1355   -6.7713 C   0  0  0  0  0
    4.7957    2.9220   -3.8551 C   0  0  0  0  0
    1.5725    0.2244   -5.3098 C   0  0  0  0  0
    4.1595    1.6610   -3.2829 C   0  0  0  0  0
    2.3436    1.5002   -4.9932 C   0  0  0  0  0
    0.8548    2.5098   -2.5575 N   0  0  0  0  0
   -1.1102    1.4421    0.4020 N   0  0  0  0  0
    2.7586    1.5682   -3.5875 N   0  0  0  0  0
    2.6281   -1.6243   -2.3989 O   0  0  0  0  0
    3.9633   -0.3837   -1.0661 O   0  0  0  0  0
   -3.6007    1.7339    1.0541 O   0  0  0  0  0
   -2.9513    1.9929   -1.3564 O   0  0  0  0  0
   -2.7661    1.3507   -0.0694 S   0  0  0  0  0
  1  2  1  0  0  0
  3  8  1  0  0  0
  4 10  1  0  0  0
  5  9  1  0  0  0
  6 20  1  0  0  0
  7 11  1  0  0  0
  7 12  1  0  0  0
  9 21  1  0  0  0
 11 22  1  0  0  0
 12 23  1  0  0  0
 13  8  1  0  0  0
 14 16  1  0  0  0
 15 17  1  0  0  0
 16 18  1  0  0  0
 17 19  1  0  0  0
 18 22  1  0  0  0
 19 22  1  0  0  0
 27 10  1  0  0  0
 27 21  1  0  0  0
  1  3  2  0  0  0
  2  4  2  0  0  0
  5  7  2  0  0  0
  6  9  2  0  0  0
  8 10  2  0  0  0
 11 20  2  0  0  0
 12 24  2  0  0  0
 27 25  2  0  0  0
 27 26  2  0  0  0
M  CHG  1  23  -1
M  END
> <rmsd>
0.512793005

$$$$
ZINC07169137


 29 31  0  0  0  0  0  0  0  0999 V2000
   -5.0384   -3.2649   -0.1528 C   0  0  0  0  0
   -2.2234    4.9665   -1.0707 C   0  0  0  0  0
   -5.4078   -2.1838    0.6473 C   0  0  0  0  0
   -4.0005   -3.1280   -1.0746 C   0  0  0  0  0
   -0.8339    4.8954   -0.9725 C   0  0  0  0  0
    4.1576   -4.1474    0.7901 C   0  0  0  0  0
    3.2343   -3.8505    1.7925 C   0  0  0  0  0
   -3.0065    3.8779   -0.6867 C   0  0  0  0  0
   -4.7395   -0.9655    0.5255 C   0  0  0  0  0
   -3.3322   -1.9098   -1.1965 C   0  0  0  0  0
   -0.2272    3.7356   -0.4902 C   0  0  0  0  0
    4.5894   -3.1457   -0.0795 C   0  0  0  0  0
    2.7425   -2.5521    1.9253 C   0  0  0  0  0
   -2.3998    2.7181   -0.2044 C   0  0  0  0  0
   -3.7017   -0.8285   -0.3965 C   0  0  0  0  0
   -1.0102    2.6469   -0.1062 C   0  0  0  0  0
    4.0975   -1.8473    0.0534 C   0  0  0  0  0
    3.1741   -1.5504    1.0557 C   0  0  0  0  0
   -3.2469    1.5988    0.1884 C   0  0  0  0  0
    0.9907    1.2626    0.5304 C   0  0  0  0  0
    1.2759   -0.1179    1.0806 C   0  0  0  0  0
   -3.0225    0.4098   -0.5199 N   0  0  0  0  0
   -0.3806    1.4946    0.3725 N   0  0  0  0  0
    4.5488   -0.8385   -0.8415 N   0  0  0  0  0
    3.9187   -0.6491   -1.9088 O   0  0  0  0  0
   -4.1170    1.7193    1.0596 O   0  0  0  0  0
    1.9110    2.0320    0.2709 O   0  0  0  0  0
    5.5633   -0.1677   -0.5368 O   0  0  0  0  0
    2.6737   -0.2790    1.2058 O   0  0  0  0  0
  1  3  1  0  0  0
  2  5  1  0  0  0
  4 10  1  0  0  0
  6  7  1  0  0  0
  8 14  1  0  0  0
  9 15  1  0  0  0
 11 16  1  0  0  0
 12 17  1  0  0  0
 13 18  1  0  0  0
 14 19  1  0  0  0
 15 22  1  0  0  0
 16 23  1  0  0  0
 17 24  1  0  0  0
 18 29  1  0  0  0
 19 22  1  0  0  0
 20 23  1  0  0  0
 21 20  1  0  0  0
 21 29  1  0  0  0
 24 25  1  0  0  0
  1  4  2  0  0  0
  2  8  2  0  0  0
  3  9  2  0  0  0
  5 11  2  0  0  0
  6 12  2  0  0  0
  7 13  2  0  0  0
 10 15  2  0  0  0
 14 16  2  0  0  0
 17 18  2  0  0  0
 19 26  2  0  0  0
 20 27  2  0  0  0
 24 28  2  0  0  0
M  CHG  2  24   1  25  -1
M  END
> <rmsd>
0.575696528

$$$$
ZINC35209361


 27 29  0  0  0  0  0  0  0  0999 V2000
    0.8690    2.5239   -2.5706 C   0  0  0  0  0
   -0.1069    2.5006   -1.5743 C   0  0  0  0  0
   -2.9067   -2.3077   -1.7773 C   0  0  0  0  0
   -3.5395   -2.5666    0.5399 C   0  0  0  0  0
   -2.7427   -0.9368   -1.5794 C   0  0  0  0  0
   -3.3754   -1.1957    0.7379 C   0  0  0  0  0
    0.8585    0.4762   -0.6760 C   0  0  0  0  0
    1.8343    0.4995   -1.6725 C   0  0  0  0  0
    1.8396    1.5233   -2.6197 C   0  0  0  0  0
   -0.1122    1.4767   -0.6270 C   0  0  0  0  0
   -3.3051   -3.1227   -0.7177 C   0  0  0  0  0
   -2.9770   -0.3807   -0.3218 C   0  0  0  0  0
    2.8492   -0.5706   -1.7017 C   0  0  0  0  0
    4.0575    2.2919   -3.3583 C   0  0  0  0  0
    2.4031    1.5203   -5.0358 C   0  0  0  0  0
    5.1477    1.8123   -4.3098 C   0  0  0  0  0
    3.5818    1.0823   -5.8981 C   0  0  0  0  0
   -3.2081   -4.9626   -2.2214 C   0  0  0  0  0
    2.8093    1.5646   -3.6268 N   0  0  0  0  0
   -1.1114    1.4533    0.3925 N   0  0  0  0  0
    2.6045   -1.6340   -2.3830 O   0  0  0  0  0
    3.9422   -0.4020   -1.0446 O   0  0  0  0  0
   -3.5972    1.7224    1.0632 O   0  0  0  0  0
   -2.9650    2.0172   -1.3479 O   0  0  0  0  0
    4.7116    1.9224   -5.6646 O   0  0  0  0  0
   -3.4649   -4.4604   -0.9108 O   0  0  0  0  0
   -2.7680    1.3588   -0.0707 S   0  0  0  0  0
  1  9  1  0  0  0
  2 10  1  0  0  0
  3 11  1  0  0  0
  4  6  1  0  0  0
  5 12  1  0  0  0
  7  8  1  0  0  0
  8 13  1  0  0  0
  9 19  1  0  0  0
 10 20  1  0  0  0
 11 26  1  0  0  0
 13 21  1  0  0  0
 14 16  1  0  0  0
 14 19  1  0  0  0
 15 17  1  0  0  0
 15 19  1  0  0  0
 16 25  1  0  0  0
 17 25  1  0  0  0
 18 26  1  0  0  0
 27 12  1  0  0  0
 27 20  1  0  0  0
  1  2  2  0  0  0
  3  5  2  0  0  0
  4 11  2  0  0  0
  6 12  2  0  0  0
  7 10  2  0  0  0
  8  9  2  0  0  0
 13 22  2  0  0  0
 27 23  2  0  0  0
 27 24  2  0  0  0
M  CHG  1  21  -1
M  END
> <rmsd>
0.52625066

$$$$
ZINC35209361


 27 29  0  0  0  0  0  0  0  0999 V2000
    1.0212    2.8834   -2.1901 C   0  0  0  0  0
   -0.0383    2.7664   -1.2904 C   0  0  0  0  0
   -2.4210   -2.2389   -1.8105 C   0  0  0  0  0
   -3.2441   -2.5889    0.4339 C   0  0  0  0  0
   -2.3842   -0.8633   -1.5824 C   0  0  0  0  0
   -3.2072   -1.2134    0.6619 C   0  0  0  0  0
    0.9954    0.8060   -0.3283 C   0  0  0  0  0
    2.0548    0.9230   -1.2281 C   0  0  0  0  0
    2.0676    1.9616   -2.1590 C   0  0  0  0  0
   -0.0512    1.7276   -0.3594 C   0  0  0  0  0
   -2.8509   -3.1018   -0.8023 C   0  0  0  0  0
   -2.7773   -0.3505   -0.3462 C   0  0  0  0  0
    3.1488   -0.0649   -1.1739 C   0  0  0  0  0
    4.2774    2.9126   -2.6768 C   0  0  0  0  0
    2.8517    2.0472   -4.5112 C   0  0  0  0  0
    5.4856    2.5363   -3.5269 C   0  0  0  0  0
    4.1361    1.7175   -5.2637 C   0  0  0  0  0
   -2.4705   -4.9004   -2.3110 C   0  0  0  0  0
    3.1205    2.0964   -3.0698 N   0  0  0  0  0
   -1.1358    1.6082    0.5613 N   0  0  0  0  0
    3.0527   -1.1311   -1.8872 O   0  0  0  0  0
    4.1593    0.1751   -0.4150 O   0  0  0  0  0
   -3.6866    1.6724    0.9981 O   0  0  0  0  0
   -2.8583    2.0599   -1.3393 O   0  0  0  0  0
    5.1700    2.6377   -4.9154 O   0  0  0  0  0
   -2.8866   -4.4440   -1.0248 O   0  0  0  0  0
   -2.7297    1.3949   -0.0569 S   0  0  0  0  0
  1  9  1  0  0  0
  2 10  1  0  0  0
  3 11  1  0  0  0
  4  6  1  0  0  0
  5 12  1  0  0  0
  7  8  1  0  0  0
  8 13  1  0  0  0
  9 19  1  0  0  0
 10 20  1  0  0  0
 11 26  1  0  0  0
 13 21  1  0  0  0
 14 16  1  0  0  0
 14 19  1  0  0  0
 15 17  1  0  0  0
 15 19  1  0  0  0
 16 25  1  0  0  0
 17 25  1  0  0  0
 18 26  1  0  0  0
 27 12  1  0  0  0
 27 20  1  0  0  0
  1  2  2  0  0  0
  3  5  2  0  0  0
  4 11  2  0  0  0
  6 12  2  0  0  0
  7 10  2  0  0  0
  8  9  2  0  0  0
 13 22  2  0  0  0
 27 23  2  0  0  0
 27 24  2  0  0  0
M  CHG  1  21  -1
M  END
> <rmsd>
0.707324624

$$$$
ZINC33253426


 27 29  0  0  0  0  0  0  0  0999 V2000
    0.8686    2.5239   -2.5709 C   0  0  0  0  0
   -0.1072    2.5007   -1.5746 C   0  0  0  0  0
   -3.5404   -2.5663    0.5393 C   0  0  0  0  0
   -2.9061   -2.3077   -1.7774 C   0  0  0  0  0
   -3.3767   -1.1953    0.7373 C   0  0  0  0  0
   -2.7423   -0.9367   -1.5796 C   0  0  0  0  0
    0.8580    0.4760   -0.6765 C   0  0  0  0  0
    1.8338    0.4993   -1.6729 C   0  0  0  0  0
    1.8391    1.5232   -2.6201 C   0  0  0  0  0
   -0.1126    1.4768   -0.6273 C   0  0  0  0  0
   -3.3051   -3.1225   -0.7180 C   0  0  0  0  0
   -2.9776   -0.3806   -0.3223 C   0  0  0  0  0
    2.8486   -0.5709   -1.7023 C   0  0  0  0  0
    3.8685    0.5502   -5.6063 C   0  0  0  0  0
    5.0015    2.4081   -4.3722 C   0  0  0  0  0
    2.5534    0.8896   -4.9047 C   0  0  0  0  0
    3.6825    2.7454   -3.6791 C   0  0  0  0  0
    4.7662    1.7829   -5.7512 C   0  0  0  0  0
    6.0910    1.4164   -6.4155 C   0  0  0  0  0
    2.8097    1.5647   -3.6282 N   0  0  0  0  0
   -1.1117    1.4532    0.3923 N   0  0  0  0  0
    2.6038   -1.6340   -2.3838 O   0  0  0  0  0
    3.9415   -0.4024   -1.0452 O   0  0  0  0  0
   -3.5974    1.7225    1.0630 O   0  0  0  0  0
   -2.9654    2.0175   -1.3480 O   0  0  0  0  0
   -3.4611   -4.4393   -0.9077 F   0  0  0  0  0
   -2.7684    1.3590   -0.0710 S   0  0  0  0  0
  1  9  1  0  0  0
  2 10  1  0  0  0
  3 11  1  0  0  0
  4  6  1  0  0  0
  5 12  1  0  0  0
  7  8  1  0  0  0
  8 13  1  0  0  0
  9 20  1  0  0  0
 10 21  1  0  0  0
 11 26  1  0  0  0
 13 22  1  0  0  0
 14 16  1  0  0  0
 14 18  1  0  0  0
 15 17  1  0  0  0
 15 18  1  0  0  0
 16 20  1  0  0  0
 17 20  1  0  0  0
 18 19  1  0  0  0
 27 12  1  0  0  0
 27 21  1  0  0  0
  1  2  2  0  0  0
  3  5  2  0  0  0
  4 11  2  0  0  0
  6 12  2  0  0  0
  7 10  2  0  0  0
  8  9  2  0  0  0
 13 23  2  0  0  0
 27 24  2  0  0  0
 27 25  2  0  0  0
M  CHG  1  22  -1
M  END
> <rmsd>
0.526346564

$$$$
ZINC33253426


 27 29  0  0  0  0  0  0  0  0999 V2000
    1.0208    2.8835   -2.1902 C   0  0  0  0  0
   -0.0385    2.7665   -1.2905 C   0  0  0  0  0
   -3.2449   -2.5887    0.4332 C   0  0  0  0  0
   -2.4202   -2.2388   -1.8105 C   0  0  0  0  0
   -3.2084   -1.2131    0.6612 C   0  0  0  0  0
   -2.3837   -0.8632   -1.5826 C   0  0  0  0  0
    0.9949    0.8059   -0.3286 C   0  0  0  0  0
    2.0543    0.9229   -1.2284 C   0  0  0  0  0
    2.0673    1.9617   -2.1592 C   0  0  0  0  0
   -0.0516    1.7277   -0.3596 C   0  0  0  0  0
   -2.8508   -3.1015   -0.8027 C   0  0  0  0  0
   -2.7778   -0.3504   -0.3468 C   0  0  0  0  0
    3.1483   -0.0651   -1.1743 C   0  0  0  0  0
    4.4355    1.2040   -4.9520 C   0  0  0  0  0
    5.2996    3.1203   -3.5957 C   0  0  0  0  0
    3.0384    1.4278   -4.3735 C   0  0  0  0  0
    3.8994    3.3419   -3.0260 C   0  0  0  0  0
    5.2432    2.5047   -4.9977 C   0  0  0  0  0
    6.6488    2.2539   -5.5384 C   0  0  0  0  0
    3.1211    2.0967   -3.0709 N   0  0  0  0  0
   -1.1362    1.6082    0.5611 N   0  0  0  0  0
    3.0522   -1.1311   -1.8878 O   0  0  0  0  0
    4.1588    0.1748   -0.4153 O   0  0  0  0  0
   -3.6869    1.6724    0.9978 O   0  0  0  0  0
   -2.8586    2.0602   -1.3395 O   0  0  0  0  0
   -2.8846   -4.4227   -1.0211 F   0  0  0  0  0
   -2.7301    1.3951   -0.0572 S   0  0  0  0  0
  1  9  1  0  0  0
  2 10  1  0  0  0
  3 11  1  0  0  0
  4  6  1  0  0  0
  5 12  1  0  0  0
  7  8  1  0  0  0
  8 13  1  0  0  0
  9 20  1  0  0  0
 10 21  1  0  0  0
 11 26  1  0  0  0
 13 22  1  0  0  0
 14 16  1  0  0  0
 14 18  1  0  0  0
 15 17  1  0  0  0
 15 18  1  0  0  0
 16 20  1  0  0  0
 17 20  1  0  0  0
 18 19  1  0  0  0
 27 12  1  0  0  0
 27 21  1  0  0  0
  1  2  2  0  0  0
  3  5  2  0  0  0
  4 11  2  0  0  0
  6 12  2  0  0  0
  7 10  2  0  0  0
  8  9  2  0  0  0
 13 23  2  0  0  0
 27 24  2  0  0  0
 27 25  2  0  0  0
M  CHG  1  22  -1
M  END
> <rmsd>
0.707472086

$$$$
ZINC32962096


 27 29  0  0  0  0  0  0  0  0999 V2000
    0.8689    2.5245   -2.5709 C   0  0  0  0  0
   -0.1069    2.5012   -1.5746 C   0  0  0  0  0
   -3.5396   -2.5659    0.5399 C   0  0  0  0  0
   -2.9052   -2.3076   -1.7771 C   0  0  0  0  0
   -3.3759   -1.1949    0.7376 C   0  0  0  0  0
   -2.7416   -0.9365   -1.5793 C   0  0  0  0  0
    0.8585    0.4768   -0.6763 C   0  0  0  0  0
    1.8344    0.5001   -1.6727 C   0  0  0  0  0
    1.8396    1.5239   -2.6200 C   0  0  0  0  0
   -0.1121    1.4774   -0.6273 C   0  0  0  0  0
   -3.3042   -3.1223   -0.7175 C   0  0  0  0  0
   -2.9769   -0.3802   -0.3220 C   0  0  0  0  0
    2.8493   -0.5700   -1.7019 C   0  0  0  0  0
    3.9950    3.4614   -5.6685 C   0  0  0  0  0
    3.2191    2.5643   -6.6317 C   0  0  0  0  0
    4.8316    2.6799   -4.6552 C   0  0  0  0  0
    2.1228    1.7195   -5.9853 C   0  0  0  0  0
    4.0666    2.2829   -3.3913 C   0  0  0  0  0
    2.6282    0.8093   -4.8680 C   0  0  0  0  0
    2.8102    1.5653   -3.6282 N   0  0  0  0  0
   -1.1114    1.4539    0.3923 N   0  0  0  0  0
    2.6046   -1.6333   -2.3832 O   0  0  0  0  0
    3.9422   -0.4014   -1.0449 O   0  0  0  0  0
   -3.5971    1.7230    1.0630 O   0  0  0  0  0
   -2.9650    2.0177   -1.3481 O   0  0  0  0  0
   -3.4599   -4.4391   -0.9070 F   0  0  0  0  0
   -2.7680    1.3593   -0.0710 S   0  0  0  0  0
  1  9  1  0  0  0
  2 10  1  0  0  0
  3  5  1  0  0  0
  4 11  1  0  0  0
  6 12  1  0  0  0
  7  8  1  0  0  0
  8 13  1  0  0  0
  9 20  1  0  0  0
 10 21  1  0  0  0
 11 26  1  0  0  0
 13 22  1  0  0  0
 14 15  1  0  0  0
 14 16  1  0  0  0
 15 17  1  0  0  0
 16 18  1  0  0  0
 17 19  1  0  0  0
 18 20  1  0  0  0
 19 20  1  0  0  0
 27 12  1  0  0  0
 27 21  1  0  0  0
  1  2  2  0  0  0
  3 11  2  0  0  0
  4  6  2  0  0  0
  5 12  2  0  0  0
  7 10  2  0  0  0
  8  9  2  0  0  0
 13 23  2  0  0  0
 27 24  2  0  0  0
 27 25  2  0  0  0
M  CHG  1  22  -1
M  END
> <rmsd>
0.526295602

$$$$
ZINC32962096


 27 29  0  0  0  0  0  0  0  0999 V2000
    1.0207    2.8843   -2.1905 C   0  0  0  0  0
   -0.0386    2.7672   -1.2907 C   0  0  0  0  0
   -3.2442   -2.5882    0.4338 C   0  0  0  0  0
   -2.4196   -2.2385   -1.8101 C   0  0  0  0  0
   -3.2077   -1.2126    0.6616 C   0  0  0  0  0
   -2.3833   -0.8628   -1.5823 C   0  0  0  0  0
    0.9953    0.8069   -0.3287 C   0  0  0  0  0
    2.0546    0.9239   -1.2285 C   0  0  0  0  0
    2.0673    1.9626   -2.1594 C   0  0  0  0  0
   -0.0513    1.7285   -0.3598 C   0  0  0  0  0
   -2.8500   -3.1012   -0.8021 C   0  0  0  0  0
   -2.7773   -0.3499   -0.3464 C   0  0  0  0  0
    3.1487   -0.0639   -1.1744 C   0  0  0  0  0
    4.3377    4.1173   -4.9695 C   0  0  0  0  0
    3.7274    3.1811   -6.0115 C   0  0  0  0  0
    5.1353    3.3838   -3.8910 C   0  0  0  0  0
    2.6456    2.2424   -5.4808 C   0  0  0  0  0
    4.2899    2.9055   -2.7092 C   0  0  0  0  0
    3.1150    1.3532   -4.3313 C   0  0  0  0  0
    3.1211    2.0977   -3.0713 N   0  0  0  0  0
   -1.1360    1.6089    0.5610 N   0  0  0  0  0
    3.0526   -1.1300   -1.8877 O   0  0  0  0  0
    4.1592    0.1762   -0.4156 O   0  0  0  0  0
   -3.6866    1.6729    0.9980 O   0  0  0  0  0
   -2.8585    2.0606   -1.3395 O   0  0  0  0  0
   -2.8836   -4.4224   -1.0205 F   0  0  0  0  0
   -2.7298    1.3955   -0.0571 S   0  0  0  0  0
  1  9  1  0  0  0
  2 10  1  0  0  0
  3  5  1  0  0  0
  4 11  1  0  0  0
  6 12  1  0  0  0
  7  8  1  0  0  0
  8 13  1  0  0  0
  9 20  1  0  0  0
 10 21  1  0  0  0
 11 26  1  0  0  0
 13 22  1  0  0  0
 14 15  1  0  0  0
 14 16  1  0  0  0
 15 17  1  0  0  0
 16 18  1  0  0  0
 17 19  1  0  0  0
 18 20  1  0  0  0
 19 20  1  0  0  0
 27 12  1  0  0  0
 27 21  1  0  0  0
  1  2  2  0  0  0
  3 11  2  0  0  0
  4  6  2  0  0  0
  5 12  2  0  0  0
  7 10  2  0  0  0
  8  9  2  0  0  0
 13 23  2  0  0  0
 27 24  2  0  0  0
 27 25  2  0  0  0
M  CHG  1  22  -1
M  END
> <rmsd>
0.707287252

$$$$
ZINC07053254


 21 22  0  0  0  0  0  0  0  0999 V2000
    1.6798    2.5959   -1.4078 C   0  0  0  0  0
    0.5315    2.6333   -0.6169 C   0  0  0  0  0
    2.3011    1.3766   -1.6782 C   0  0  0  0  0
   -2.8033   -0.9492   -1.4964 C   0  0  0  0  0
   -2.9304   -2.3265   -1.6765 C   0  0  0  0  0
    0.6257    0.2321   -0.3667 C   0  0  0  0  0
   -3.2024   -2.6130    0.7070 C   0  0  0  0  0
    0.0044    1.4514   -0.0963 C   0  0  0  0  0
    1.7741    0.1948   -1.1576 C   0  0  0  0  0
   -2.8758   -0.4037   -0.2147 C   0  0  0  0  0
   -3.0753   -1.2356    0.8870 C   0  0  0  0  0
   -3.1300   -3.1584   -0.5747 C   0  0  0  0  0
   -1.1707    1.4900    0.7135 N   0  0  0  0  0
    2.4063   -1.0461   -1.4341 N   0  0  0  0  0
    3.4379   -1.0571   -2.1487 O   0  0  0  0  0
    1.9168   -2.0980   -0.9561 O   0  0  0  0  0
   -3.7372    1.7846    0.8785 O   0  0  0  0  0
   -2.6561    1.9180   -1.3826 O   0  0  0  0  0
   -2.7093    1.3506   -0.0490 S   0  0  0  0  0
   -3.1717   -0.6099    2.4940 Cl  0  0  0  0  0
   -3.3019   -5.0245   -0.8206 Br  0  0  0  0  0
  1  2  1  0  0  0
  3  9  1  0  0  0
  4 10  1  0  0  0
  5 12  1  0  0  0
  6  8  1  0  0  0
  7 11  1  0  0  0
  8 13  1  0  0  0
  9 14  1  0  0  0
 11 20  1  0  0  0
 12 21  1  0  0  0
 14 15  1  0  0  0
 19 10  1  0  0  0
 19 13  1  0  0  0
  1  3  2  0  0  0
  2  8  2  0  0  0
  4  5  2  0  0  0
  6  9  2  0  0  0
  7 12  2  0  0  0
 10 11  2  0  0  0
 14 16  2  0  0  0
 19 17  2  0  0  0
 19 18  2  0  0  0
M  CHG  2  14   1  15  -1
M  END
> <rmsd>
0.557691038

$$$$
ZINC05280486


 29 33  0  0  0  0  0  0  0  0999 V2000
   -3.2265   -3.6378   -2.9434 C   0  0  0  0  0
   -2.7117   -2.5178   -3.5810 C   0  0  0  0  0
   -3.7278   -3.5267   -1.6488 C   0  0  0  0  0
   -2.6924   -1.2861   -2.9230 C   0  0  0  0  0
   -4.2416   -2.2073    0.3273 C   0  0  0  0  0
    0.6279    0.0293   -0.0136 C   0  0  0  0  0
    1.7982   -0.4060   -0.6351 C   0  0  0  0  0
   -4.2582   -0.9975    1.0142 C   0  0  0  0  0
    1.8905    1.6496   -1.9012 C   0  0  0  0  0
   -3.7185   -2.2953   -0.9728 C   0  0  0  0  0
   -3.1858   -1.1413   -1.6062 C   0  0  0  0  0
   -3.1856    0.0838   -0.8881 C   0  0  0  0  0
    0.0887    1.2748   -0.3358 C   0  0  0  0  0
    2.4295    0.4041   -1.5790 C   0  0  0  0  0
    0.7201    2.0849   -1.2796 C   0  0  0  0  0
   -3.7413    0.1390    0.4069 C   0  0  0  0  0
   -3.8481    2.2479   -1.9071 C   0  0  0  0  0
   -4.3403    2.9188   -0.6117 C   0  0  0  0  0
   -2.6539    1.3960   -1.4526 C   0  0  0  0  0
   -3.3068    2.4842    0.4392 C   0  0  0  0  0
   -2.1209    2.2813   -0.4011 N   0  0  0  0  0
   -1.0850    1.6877    0.3005 N   0  0  0  0  0
    3.6210   -0.0399   -2.2112 N   0  0  0  0  0
    0.1912    3.3597   -1.6265 N   0  0  0  0  0
    4.0886   -1.1636   -1.9065 O   0  0  0  0  0
   -0.6295    3.4377   -2.5705 O   0  0  0  0  0
    4.1734    0.7036   -3.0577 O   0  0  0  0  0
    0.5620    4.3656   -0.9773 O   0  0  0  0  0
   -3.7830    1.3083    1.1355 O   0  0  0  0  0
  1  2  1  0  0  0
  3 10  1  0  0  0
  4 11  1  0  0  0
  5  8  1  0  0  0
  6 13  1  0  0  0
  7 14  1  0  0  0
  9 15  1  0  0  0
 10 11  1  0  0  0
 12 16  1  0  0  0
 13 22  1  0  0  0
 14 23  1  0  0  0
 15 24  1  0  0  0
 16 29  1  0  0  0
 17 18  1  0  0  0
 17 19  1  0  0  0
 18 20  1  0  0  0
 19 12  1  0  0  0
 19 21  1  0  0  0
 20 21  1  0  0  0
 20 29  1  0  0  0
 21 22  1  0  0  0
 23 25  1  0  0  0
 24 26  1  0  0  0
  1  3  2  0  0  0
  2  4  2  0  0  0
  5 10  2  0  0  0
  6  7  2  0  0  0
  8 16  2  0  0  0
  9 14  2  0  0  0
 11 12  2  0  0  0
 13 15  2  0  0  0
 23 27  2  0  0  0
 24 28  2  0  0  0
M  CHG  4  23   1  24   1  25  -1  26  -1
M  END
> <rmsd>
0.486872941

$$$$
ZINC05280486


 29 33  0  0  0  0  0  0  0  0999 V2000
   -2.6046   -3.9453   -2.4938 C   0  0  0  0  0
   -1.9879   -2.8824   -3.1386 C   0  0  0  0  0
   -3.3175   -3.7209   -1.3185 C   0  0  0  0  0
   -2.0784   -1.5944   -2.6065 C   0  0  0  0  0
   -4.1561   -2.2301    0.4088 C   0  0  0  0  0
    0.7735    1.2336   -0.9718 C   0  0  0  0  0
    1.8414    0.4366   -1.3843 C   0  0  0  0  0
   -4.2870   -0.9617    0.9655 C   0  0  0  0  0
    1.4210   -1.0765    0.4516 C   0  0  0  0  0
   -3.4209   -2.4316   -0.7702 C   0  0  0  0  0
   -2.7872   -1.3342   -1.4113 C   0  0  0  0  0
   -2.9067   -0.0475   -0.8226 C   0  0  0  0  0
    0.0296    0.8757    0.1524 C   0  0  0  0  0
    2.1651   -0.7184   -0.6726 C   0  0  0  0  0
    0.3533   -0.2795    0.8641 C   0  0  0  0  0
   -3.6733    0.1205    0.3491 C   0  0  0  0  0
   -3.3844    2.0019   -2.1390 C   0  0  0  0  0
   -4.0876    2.7837   -1.0144 C   0  0  0  0  0
   -2.2854    1.2138   -1.4112 C   0  0  0  0  0
   -3.2473    2.4645    0.2319 C   0  0  0  0  0
   -1.9367    2.2013   -0.3735 N   0  0  0  0  0
   -1.0351    1.6912    0.5455 N   0  0  0  0  0
    3.2523   -1.5293   -1.0932 N   0  0  0  0  0
   -0.3894   -0.6675    2.0143 N   0  0  0  0  0
    3.9082   -1.1886   -2.1072 O   0  0  0  0  0
   -0.0255   -0.2501    3.1386 O   0  0  0  0  0
    3.5277   -2.5641   -0.4393 O   0  0  0  0  0
   -1.3851   -1.4145    1.8679 O   0  0  0  0  0
   -3.8360    1.3521    0.9462 O   0  0  0  0  0
  1  2  1  0  0  0
  3 10  1  0  0  0
  4 11  1  0  0  0
  5  8  1  0  0  0
  6 13  1  0  0  0
  7 14  1  0  0  0
  9 15  1  0  0  0
 10 11  1  0  0  0
 12 16  1  0  0  0
 13 22  1  0  0  0
 14 23  1  0  0  0
 15 24  1  0  0  0
 16 29  1  0  0  0
 17 18  1  0  0  0
 17 19  1  0  0  0
 18 20  1  0  0  0
 19 12  1  0  0  0
 19 21  1  0  0  0
 20 21  1  0  0  0
 20 29  1  0  0  0
 21 22  1  0  0  0
 23 25  1  0  0  0
 24 26  1  0  0  0
  1  3  2  0  0  0
  2  4  2  0  0  0
  5 10  2  0  0  0
  6  7  2  0  0  0
  8 16  2  0  0  0
  9 14  2  0  0  0
 11 12  2  0  0  0
 13 15  2  0  0  0
 23 27  2  0  0  0
 24 28  2  0  0  0
M  CHG  4  23   1  24   1  25  -1  26  -1
M  END
> <rmsd>
0.422740519

$$$$
ZINC64472395


 27 29  0  0  0  0  0  0  0  0999 V2000
   -3.4763   -2.5722    0.5227 C   0  0  0  0  0
   -2.7661   -2.3105   -1.7717 C   0  0  0  0  0
   -3.3391   -1.1984    0.7219 C   0  0  0  0  0
   -2.6289   -0.9368   -1.5725 C   0  0  0  0  0
    0.8272    0.4628   -0.6327 C   0  0  0  0  0
    1.8977    1.6028   -2.4246 C   0  0  0  0  0
    1.8332    0.4973   -1.5919 C   0  0  0  0  0
   -0.0708    1.5200   -0.5368 C   0  0  0  0  0
   -3.1897   -3.1282   -0.7241 C   0  0  0  0  0
   -2.9155   -0.3807   -0.3258 C   0  0  0  0  0
    0.0790    2.5798   -1.4167 C   0  0  0  0  0
    2.7980   -0.6031   -1.7177 C   0  0  0  0  0
   -1.1340    4.3955   -2.5514 C   0  0  0  0  0
   -0.9193    4.4171   -0.0816 C   0  0  0  0  0
   -2.4537    5.1384   -2.3773 C   0  0  0  0  0
   -2.2505    5.1593   -0.0394 C   0  0  0  0  0
   -3.7615   -5.2456    0.1954 C   0  0  0  0  0
    1.0433    2.6487   -2.3616 N   0  0  0  0  0
   -0.8205    3.6471   -1.3263 N   0  0  0  0  0
   -1.1053    1.4844    0.4481 N   0  0  0  0  0
    3.7138   -0.5280   -2.6221 O   0  0  0  0  0
    2.7000   -1.6115   -0.9202 O   0  0  0  0  0
   -3.6161    1.7161    1.0301 O   0  0  0  0  0
   -2.9049    2.0145   -1.3583 O   0  0  0  0  0
   -2.4144    5.9590   -1.2100 O   0  0  0  0  0
   -3.3239   -4.4685   -0.9184 O   0  0  0  0  0
   -2.7423    1.3625   -0.0730 S   0  0  0  0  0
  1  9  1  0  0  0
  2  4  1  0  0  0
  3 10  1  0  0  0
  5  8  1  0  0  0
  6  7  1  0  0  0
  7 12  1  0  0  0
  8 20  1  0  0  0
  9 26  1  0  0  0
 11 18  1  0  0  0
 11 19  1  0  0  0
 12 21  1  0  0  0
 13 15  1  0  0  0
 13 19  1  0  0  0
 14 16  1  0  0  0
 14 19  1  0  0  0
 15 25  1  0  0  0
 16 25  1  0  0  0
 17 26  1  0  0  0
 27 10  1  0  0  0
 27 20  1  0  0  0
  1  3  2  0  0  0
  2  9  2  0  0  0
  4 10  2  0  0  0
  5  7  2  0  0  0
  6 18  2  0  0  0
  8 11  2  0  0  0
 12 22  2  0  0  0
 27 23  2  0  0  0
 27 24  2  0  0  0
M  CHG  1  21  -1
M  END
> <rmsd>
0.57172668

$$$$
ZINC64472395


 27 29  0  0  0  0  0  0  0  0999 V2000
   -3.7732   -2.5037    0.6780 C   0  0  0  0  0
   -2.9055   -2.3903   -1.5740 C   0  0  0  0  0
   -3.5775   -1.1302    0.8226 C   0  0  0  0  0
   -2.7098   -1.0168   -1.4293 C   0  0  0  0  0
    0.7478    0.2558   -0.3280 C   0  0  0  0  0
    1.9884    1.2524   -2.0956 C   0  0  0  0  0
    1.8133    0.1936   -1.2192 C   0  0  0  0  0
   -0.0981    1.3592   -0.3403 C   0  0  0  0  0
   -3.4372   -3.1338   -0.5203 C   0  0  0  0  0
   -3.0458   -0.3868   -0.2311 C   0  0  0  0  0
    0.1626    2.3659   -1.2560 C   0  0  0  0  0
    2.7254   -0.9577   -1.2303 C   0  0  0  0  0
   -0.8790    4.1810   -2.5505 C   0  0  0  0  0
   -0.8214    4.3133   -0.0755 C   0  0  0  0  0
   -2.1666    4.9954   -2.4984 C   0  0  0  0  0
   -2.1120    5.1213   -0.1556 C   0  0  0  0  0
   -4.1762   -5.1728    0.4554 C   0  0  0  0  0
    1.1876    2.3408   -2.1372 N   0  0  0  0  0
   -0.6838    3.4792   -1.2744 N   0  0  0  0  0
   -1.1937    1.4229    0.5745 N   0  0  0  0  0
    3.6996   -0.9723   -2.0746 O   0  0  0  0  0
    2.5243   -1.9197   -0.3956 O   0  0  0  0  0
   -3.7209    1.8060    0.9779 O   0  0  0  0  0
   -2.8443    1.9514   -1.3694 O   0  0  0  0  0
   -2.1590    5.8695   -1.3698 O   0  0  0  0  0
   -3.6285   -4.4738   -0.6614 O   0  0  0  0  0
   -2.7983    1.3561   -0.0476 S   0  0  0  0  0
  1  9  1  0  0  0
  2  4  1  0  0  0
  3 10  1  0  0  0
  5  8  1  0  0  0
  6  7  1  0  0  0
  7 12  1  0  0  0
  8 20  1  0  0  0
  9 26  1  0  0  0
 11 18  1  0  0  0
 11 19  1  0  0  0
 12 21  1  0  0  0
 13 15  1  0  0  0
 13 19  1  0  0  0
 14 16  1  0  0  0
 14 19  1  0  0  0
 15 25  1  0  0  0
 16 25  1  0  0  0
 17 26  1  0  0  0
 27 10  1  0  0  0
 27 20  1  0  0  0
  1  3  2  0  0  0
  2  9  2  0  0  0
  4 10  2  0  0  0
  5  7  2  0  0  0
  6 18  2  0  0  0
  8 11  2  0  0  0
 12 22  2  0  0  0
 27 23  2  0  0  0
 27 24  2  0  0  0
M  CHG  1  21  -1
M  END
> <rmsd>
0.414562523

$$$$
ZINC35397682


 27 29  0  0  0  0  0  0  0  0999 V2000
   -2.9167   -2.3218   -1.7553 C   0  0  0  0  0
   -3.5700   -2.5602    0.5584 C   0  0  0  0  0
   -2.7443   -0.9508   -1.5654 C   0  0  0  0  0
   -3.3974   -1.1892    0.7485 C   0  0  0  0  0
    0.8677    0.4565   -0.6597 C   0  0  0  0  0
   -0.0606    2.4520   -1.5612 C   0  0  0  0  0
    1.8374    0.4939   -1.6556 C   0  0  0  0  0
   -0.1030    1.4506   -0.6046 C   0  0  0  0  0
   -3.3297   -3.1266   -0.6934 C   0  0  0  0  0
   -2.9845   -0.3845   -0.3135 C   0  0  0  0  0
    1.7927    1.5381   -2.5652 C   0  0  0  0  0
    2.8645   -0.5604   -1.7118 C   0  0  0  0  0
    4.0124    2.3088   -3.2962 C   0  0  0  0  0
    2.3624    1.5413   -4.9798 C   0  0  0  0  0
    5.1050    1.8318   -4.2461 C   0  0  0  0  0
    3.5432    1.1057   -5.8402 C   0  0  0  0  0
   -3.2343   -4.9773   -2.1839 C   0  0  0  0  0
    0.8655    2.5217   -2.5435 N   0  0  0  0  0
    2.7650    1.5822   -3.5697 N   0  0  0  0  0
   -1.1098    1.4394    0.4038 N   0  0  0  0  0
    2.6285   -1.6176   -2.4075 O   0  0  0  0  0
    3.9631   -0.3891   -1.0631 O   0  0  0  0  0
   -3.6013    1.7328    1.0513 O   0  0  0  0  0
   -2.9449    2.0061   -1.3558 O   0  0  0  0  0
    4.6724    1.9453   -5.6017 O   0  0  0  0  0
   -3.4978   -4.4643   -0.8788 O   0  0  0  0  0
   -2.7646    1.3551   -0.0725 S   0  0  0  0  0
  1  9  1  0  0  0
  2  4  1  0  0  0
  3 10  1  0  0  0
  5  8  1  0  0  0
  6 18  1  0  0  0
  7 11  1  0  0  0
  7 12  1  0  0  0
  8 20  1  0  0  0
  9 26  1  0  0  0
 11 19  1  0  0  0
 12 21  1  0  0  0
 13 15  1  0  0  0
 13 19  1  0  0  0
 14 16  1  0  0  0
 14 19  1  0  0  0
 15 25  1  0  0  0
 16 25  1  0  0  0
 17 26  1  0  0  0
 27 10  1  0  0  0
 27 20  1  0  0  0
  1  3  2  0  0  0
  2  9  2  0  0  0
  4 10  2  0  0  0
  5  7  2  0  0  0
  6  8  2  0  0  0
 11 18  2  0  0  0
 12 22  2  0  0  0
 27 23  2  0  0  0
 27 24  2  0  0  0
M  CHG  1  21  -1
M  END
> <rmsd>
0.510341763

$$$$
ZINC35397682


 27 29  0  0  0  0  0  0  0  0999 V2000
   -2.4335   -2.2554   -1.7869 C   0  0  0  0  0
   -3.2790   -2.5847    0.4522 C   0  0  0  0  0
   -2.3869   -0.8789   -1.5669 C   0  0  0  0  0
   -3.2323   -1.2081    0.6723 C   0  0  0  0  0
    1.0041    0.7846   -0.3096 C   0  0  0  0  0
    0.0111    2.7190   -1.2732 C   0  0  0  0  0
    2.0565    0.9140   -1.2092 C   0  0  0  0  0
   -0.0420    1.7002   -0.3357 C   0  0  0  0  0
   -2.8797   -3.1084   -0.7774 C   0  0  0  0  0
   -2.7862   -0.3552   -0.3373 C   0  0  0  0  0
    2.0155    1.9679   -2.1077 C   0  0  0  0  0
    3.1634   -0.0573   -1.1796 C   0  0  0  0  0
    4.2268    2.9195   -2.6179 C   0  0  0  0  0
    2.8057    2.0582   -4.4577 C   0  0  0  0  0
    5.4370    2.5448   -3.4656 C   0  0  0  0  0
    4.0919    1.7299   -5.2076 C   0  0  0  0  0
   -2.5017   -4.9193   -2.2719 C   0  0  0  0  0
    1.0164    2.8771   -2.1631 N   0  0  0  0  0
    3.0707    2.1045   -3.0156 N   0  0  0  0  0
   -1.1345    1.5938    0.5731 N   0  0  0  0  0
    3.0765   -1.1167   -1.9058 O   0  0  0  0  0
    4.1801    0.1861   -0.4283 O   0  0  0  0  0
   -3.6908    1.6838    0.9858 O   0  0  0  0  0
   -2.8362    2.0497   -1.3456 O   0  0  0  0  0
    5.1251    2.6491   -4.8546 O   0  0  0  0  0
   -2.9249   -4.4515   -0.9921 O   0  0  0  0  0
   -2.7261    1.3915   -0.0580 S   0  0  0  0  0
  1  9  1  0  0  0
  2  4  1  0  0  0
  3 10  1  0  0  0
  5  8  1  0  0  0
  6 18  1  0  0  0
  7 11  1  0  0  0
  7 12  1  0  0  0
  8 20  1  0  0  0
  9 26  1  0  0  0
 11 19  1  0  0  0
 12 21  1  0  0  0
 13 15  1  0  0  0
 13 19  1  0  0  0
 14 16  1  0  0  0
 14 19  1  0  0  0
 15 25  1  0  0  0
 16 25  1  0  0  0
 17 26  1  0  0  0
 27 10  1  0  0  0
 27 20  1  0  0  0
  1  3  2  0  0  0
  2  9  2  0  0  0
  4 10  2  0  0  0
  5  7  2  0  0  0
  6  8  2  0  0  0
 11 18  2  0  0  0
 12 22  2  0  0  0
 27 23  2  0  0  0
 27 24  2  0  0  0
M  CHG  1  21  -1
M  END
> <rmsd>
0.689509094

$$$$
ZINC35397323


 27 29  0  0  0  0  0  0  0  0999 V2000
   -3.2789   -2.5842    0.4527 C   0  0  0  0  0
   -2.4321   -2.2555   -1.7861 C   0  0  0  0  0
   -3.2325   -1.2076    0.6724 C   0  0  0  0  0
   -2.3857   -0.8789   -1.5664 C   0  0  0  0  0
    1.0042    0.7850   -0.3100 C   0  0  0  0  0
    0.0111    2.7193   -1.2738 C   0  0  0  0  0
    2.0566    0.9144   -1.2096 C   0  0  0  0  0
   -0.0418    1.7006   -0.3361 C   0  0  0  0  0
   -2.8786   -3.1082   -0.7765 C   0  0  0  0  0
   -2.7859   -0.3549   -0.3371 C   0  0  0  0  0
    2.0155    1.9682   -2.1083 C   0  0  0  0  0
    3.1636   -0.0568   -1.1799 C   0  0  0  0  0
    4.3908    1.2153   -4.8965 C   0  0  0  0  0
    5.2516    3.1292   -3.5346 C   0  0  0  0  0
    2.9922    1.4382   -4.3211 C   0  0  0  0  0
    3.8500    3.3498   -2.9679 C   0  0  0  0  0
    5.1986    2.5161   -4.9377 C   0  0  0  0  0
    6.6056    2.2662   -5.4754 C   0  0  0  0  0
    1.0165    2.8774   -2.1637 N   0  0  0  0  0
    3.0716    2.1048   -3.0171 N   0  0  0  0  0
   -1.1343    1.5943    0.5728 N   0  0  0  0  0
    3.0766   -1.1163   -1.9061 O   0  0  0  0  0
    4.1803    0.1866   -0.4288 O   0  0  0  0  0
   -3.6905    1.6842    0.9857 O   0  0  0  0  0
   -2.8361    2.0500   -1.3458 O   0  0  0  0  0
   -2.9218   -4.4304   -0.9870 F   0  0  0  0  0
   -2.7259    1.3918   -0.0581 S   0  0  0  0  0
  1  9  1  0  0  0
  2  4  1  0  0  0
  3 10  1  0  0  0
  5  8  1  0  0  0
  6 19  1  0  0  0
  7 11  1  0  0  0
  7 12  1  0  0  0
  8 21  1  0  0  0
  9 26  1  0  0  0
 11 20  1  0  0  0
 12 22  1  0  0  0
 13 15  1  0  0  0
 13 17  1  0  0  0
 14 16  1  0  0  0
 14 17  1  0  0  0
 15 20  1  0  0  0
 16 20  1  0  0  0
 17 18  1  0  0  0
 27 10  1  0  0  0
 27 21  1  0  0  0
  1  3  2  0  0  0
  2  9  2  0  0  0
  4 10  2  0  0  0
  5  7  2  0  0  0
  6  8  2  0  0  0
 11 19  2  0  0  0
 12 23  2  0  0  0
 27 24  2  0  0  0
 27 25  2  0  0  0
M  CHG  1  22  -1
M  END
> <rmsd>
0.689562321

$$$$
ZINC35397323


 27 29  0  0  0  0  0  0  0  0999 V2000
   -3.5696   -2.5598    0.5588 C   0  0  0  0  0
   -2.9150   -2.3219   -1.7547 C   0  0  0  0  0
   -3.3975   -1.1887    0.7485 C   0  0  0  0  0
   -2.7429   -0.9508   -1.5650 C   0  0  0  0  0
    0.8678    0.4572   -0.6601 C   0  0  0  0  0
   -0.0607    2.4526   -1.5617 C   0  0  0  0  0
    1.8374    0.4946   -1.6561 C   0  0  0  0  0
   -0.1029    1.4512   -0.6050 C   0  0  0  0  0
   -3.3283   -3.1265   -0.6928 C   0  0  0  0  0
   -2.9841   -0.3841   -0.3134 C   0  0  0  0  0
    1.7926    1.5387   -2.5657 C   0  0  0  0  0
    2.8647   -0.5596   -1.7122 C   0  0  0  0  0
    3.8297    0.5733   -5.5492 C   0  0  0  0  0
    4.9591    2.4288   -4.3080 C   0  0  0  0  0
    2.5128    0.9107   -4.8501 C   0  0  0  0  0
    3.6382    2.7639   -3.6172 C   0  0  0  0  0
    4.7273    1.8067   -5.6889 C   0  0  0  0  0
    6.0540    1.4422   -6.3508 C   0  0  0  0  0
    0.8654    2.5223   -2.5441 N   0  0  0  0  0
    2.7657    1.5829   -3.5713 N   0  0  0  0  0
   -1.1096    1.4400    0.4035 N   0  0  0  0  0
    2.6287   -1.6168   -2.4079 O   0  0  0  0  0
    3.9634   -0.3881   -1.0636 O   0  0  0  0  0
   -3.6011    1.7332    1.0511 O   0  0  0  0  0
   -2.9449    2.0064   -1.3560 O   0  0  0  0  0
   -3.4923   -4.4434   -0.8746 F   0  0  0  0  0
   -2.7645    1.3554   -0.0726 S   0  0  0  0  0
  1  9  1  0  0  0
  2  4  1  0  0  0
  3 10  1  0  0  0
  5  8  1  0  0  0
  6 19  1  0  0  0
  7 11  1  0  0  0
  7 12  1  0  0  0
  8 21  1  0  0  0
  9 26  1  0  0  0
 11 20  1  0  0  0
 12 22  1  0  0  0
 13 15  1  0  0  0
 13 17  1  0  0  0
 14 16  1  0  0  0
 14 17  1  0  0  0
 15 20  1  0  0  0
 16 20  1  0  0  0
 17 18  1  0  0  0
 27 10  1  0  0  0
 27 21  1  0  0  0
  1  3  2  0  0  0
  2  9  2  0  0  0
  4 10  2  0  0  0
  5  7  2  0  0  0
  6  8  2  0  0  0
 11 19  2  0  0  0
 12 23  2  0  0  0
 27 24  2  0  0  0
 27 25  2  0  0  0
M  CHG  1  22  -1
M  END
> <rmsd>
0.510431826

$$$$
ZINC35397418


 27 29  0  0  0  0  0  0  0  0999 V2000
   -3.2792   -2.5843    0.4525 C   0  0  0  0  0
   -2.4323   -2.2556   -1.7861 C   0  0  0  0  0
   -3.2328   -1.2078    0.6723 C   0  0  0  0  0
   -2.3860   -0.8788   -1.5664 C   0  0  0  0  0
    1.0041    0.7849   -0.3100 C   0  0  0  0  0
    0.0110    2.7192   -1.2736 C   0  0  0  0  0
    2.0564    0.9143   -1.2095 C   0  0  0  0  0
   -0.0420    1.7005   -0.3360 C   0  0  0  0  0
   -2.8789   -3.1083   -0.7767 C   0  0  0  0  0
   -2.7863   -0.3550   -0.3372 C   0  0  0  0  0
    2.0153    1.9681   -2.1081 C   0  0  0  0  0
    3.1634   -0.0570   -1.1799 C   0  0  0  0  0
    4.2933    4.1278   -4.9080 C   0  0  0  0  0
    3.6856    3.1938   -5.9535 C   0  0  0  0  0
    5.0881    3.3920   -3.8290 C   0  0  0  0  0
    2.6023    2.2543   -5.4274 C   0  0  0  0  0
    4.2394    2.9115   -2.6503 C   0  0  0  0  0
    3.0685    1.3627   -4.2785 C   0  0  0  0  0
    1.0162    2.8772   -2.1636 N   0  0  0  0  0
    3.0715    2.1047   -3.0170 N   0  0  0  0  0
   -1.1345    1.5941    0.5728 N   0  0  0  0  0
    3.0763   -1.1164   -1.9060 O   0  0  0  0  0
    4.1800    0.1865   -0.4288 O   0  0  0  0  0
   -3.6908    1.6841    0.9857 O   0  0  0  0  0
   -2.8364    2.0499   -1.3457 O   0  0  0  0  0
   -2.9220   -4.4304   -0.9872 F   0  0  0  0  0
   -2.7262    1.3918   -0.0581 S   0  0  0  0  0
  1  3  1  0  0  0
  2  9  1  0  0  0
  4 10  1  0  0  0
  5  8  1  0  0  0
  6 19  1  0  0  0
  7 11  1  0  0  0
  7 12  1  0  0  0
  8 21  1  0  0  0
  9 26  1  0  0  0
 11 20  1  0  0  0
 12 22  1  0  0  0
 13 14  1  0  0  0
 13 15  1  0  0  0
 14 16  1  0  0  0
 15 17  1  0  0  0
 16 18  1  0  0  0
 17 20  1  0  0  0
 18 20  1  0  0  0
 27 10  1  0  0  0
 27 21  1  0  0  0
  1  9  2  0  0  0
  2  4  2  0  0  0
  3 10  2  0  0  0
  5  7  2  0  0  0
  6  8  2  0  0  0
 11 19  2  0  0  0
 12 23  2  0  0  0
 27 24  2  0  0  0
 27 25  2  0  0  0
M  CHG  1  22  -1
M  END
> <rmsd>
0.689545512

$$$$
ZINC35397418


 27 29  0  0  0  0  0  0  0  0999 V2000
   -3.5698   -2.5598    0.5586 C   0  0  0  0  0
   -2.9149   -2.3221   -1.7547 C   0  0  0  0  0
   -3.3977   -1.1888    0.7484 C   0  0  0  0  0
   -2.7429   -0.9508   -1.5650 C   0  0  0  0  0
    0.8678    0.4571   -0.6597 C   0  0  0  0  0
   -0.0606    2.4525   -1.5613 C   0  0  0  0  0
    1.8375    0.4945   -1.6555 C   0  0  0  0  0
   -0.1029    1.4511   -0.6047 C   0  0  0  0  0
   -3.3284   -3.1266   -0.6929 C   0  0  0  0  0
   -2.9843   -0.3843   -0.3135 C   0  0  0  0  0
    1.7927    1.5387   -2.5651 C   0  0  0  0  0
    2.8648   -0.5596   -1.7116 C   0  0  0  0  0
    3.9555    3.4843   -5.6033 C   0  0  0  0  0
    3.1823    2.5894   -6.5707 C   0  0  0  0  0
    4.7897    2.7004   -4.5899 C   0  0  0  0  0
    2.0846    1.7428   -5.9292 C   0  0  0  0  0
    4.0215    2.3001   -3.3289 C   0  0  0  0  0
    2.5873    0.8299   -4.8129 C   0  0  0  0  0
    0.8654    2.5222   -2.5436 N   0  0  0  0  0
    2.7660    1.5829   -3.5707 N   0  0  0  0  0
   -1.1098    1.4399    0.4037 N   0  0  0  0  0
    2.6289   -1.6168   -2.4073 O   0  0  0  0  0
    3.9633   -0.3880   -1.0628 O   0  0  0  0  0
   -3.6014    1.7331    1.0511 O   0  0  0  0  0
   -2.9450    2.0063   -1.3559 O   0  0  0  0  0
   -3.4922   -4.4435   -0.8747 F   0  0  0  0  0
   -2.7646    1.3554   -0.0725 S   0  0  0  0  0
  1  3  1  0  0  0
  2  9  1  0  0  0
  4 10  1  0  0  0
  5  8  1  0  0  0
  6 19  1  0  0  0
  7 11  1  0  0  0
  7 12  1  0  0  0
  8 21  1  0  0  0
  9 26  1  0  0  0
 11 20  1  0  0  0
 12 22  1  0  0  0
 13 14  1  0  0  0
 13 15  1  0  0  0
 14 16  1  0  0  0
 15 17  1  0  0  0
 16 18  1  0  0  0
 17 20  1  0  0  0
 18 20  1  0  0  0
 27 10  1  0  0  0
 27 21  1  0  0  0
  1  9  2  0  0  0
  2  4  2  0  0  0
  3 10  2  0  0  0
  5  7  2  0  0  0
  6  8  2  0  0  0
 11 19  2  0  0  0
 12 23  2  0  0  0
 27 24  2  0  0  0
 27 25  2  0  0  0
M  CHG  1  22  -1
M  END
> <rmsd>
0.510509908

$$$$
ZINC35397338


 27 29  0  0  0  0  0  0  0  0999 V2000
   -2.9170   -2.3219   -1.7547 C   0  0  0  0  0
   -3.3306   -3.1262   -0.6928 C   0  0  0  0  0
   -2.7434   -0.9510   -1.5649 C   0  0  0  0  0
    0.8684    0.4572   -0.6599 C   0  0  0  0  0
   -3.3972   -1.1885    0.7488 C   0  0  0  0  0
   -0.0602    2.4525   -1.5615 C   0  0  0  0  0
    1.8380    0.4946   -1.6559 C   0  0  0  0  0
   -0.1023    1.4512   -0.6049 C   0  0  0  0  0
   -3.5707   -2.5595    0.5589 C   0  0  0  0  0
   -2.9835   -0.3843   -0.3131 C   0  0  0  0  0
    1.7931    1.5387   -2.5656 C   0  0  0  0  0
    2.8653   -0.5595   -1.7120 C   0  0  0  0  0
    3.8302    0.5733   -5.5490 C   0  0  0  0  0
    4.9595    2.4288   -4.3080 C   0  0  0  0  0
    2.5133    0.9106   -4.8499 C   0  0  0  0  0
    3.6386    2.7640   -3.6172 C   0  0  0  0  0
    4.7277    1.8067   -5.6888 C   0  0  0  0  0
    6.0544    1.4422   -6.3507 C   0  0  0  0  0
    0.8658    2.5222   -2.5440 N   0  0  0  0  0
    2.7661    1.5828   -3.5712 N   0  0  0  0  0
   -1.1091    1.4399    0.4037 N   0  0  0  0  0
    2.6294   -1.6167   -2.4077 O   0  0  0  0  0
    3.9640   -0.3879   -1.0634 O   0  0  0  0  0
   -3.6005    1.7330    1.0514 O   0  0  0  0  0
   -2.9445    2.0061   -1.3558 O   0  0  0  0  0
   -3.9687   -3.3319    1.5784 F   0  0  0  0  0
   -2.7639    1.3553   -0.0723 S   0  0  0  0  0
  1  2  1  0  0  0
  3 10  1  0  0  0
  4  8  1  0  0  0
  5  9  1  0  0  0
  6 19  1  0  0  0
  7 11  1  0  0  0
  7 12  1  0  0  0
  8 21  1  0  0  0
  9 26  1  0  0  0
 11 20  1  0  0  0
 12 22  1  0  0  0
 13 15  1  0  0  0
 13 17  1  0  0  0
 14 16  1  0  0  0
 14 17  1  0  0  0
 15 20  1  0  0  0
 16 20  1  0  0  0
 17 18  1  0  0  0
 27 10  1  0  0  0
 27 21  1  0  0  0
  1  3  2  0  0  0
  2  9  2  0  0  0
  4  7  2  0  0  0
  5 10  2  0  0  0
  6  8  2  0  0  0
 11 19  2  0  0  0
 12 23  2  0  0  0
 27 24  2  0  0  0
 27 25  2  0  0  0
M  CHG  1  22  -1
M  END
> <rmsd>
0.50991416

$$$$
ZINC35397338


 27 29  0  0  0  0  0  0  0  0999 V2000
   -2.4340   -2.2556   -1.7862 C   0  0  0  0  0
   -2.8809   -3.1081   -0.7767 C   0  0  0  0  0
   -2.3862   -0.8791   -1.5663 C   0  0  0  0  0
    1.0048    0.7851   -0.3098 C   0  0  0  0  0
   -3.2323   -1.2074    0.6728 C   0  0  0  0  0
    0.0116    2.7193   -1.2737 C   0  0  0  0  0
    2.0571    0.9145   -1.2095 C   0  0  0  0  0
   -0.0413    1.7006   -0.3360 C   0  0  0  0  0
   -3.2800   -2.5841    0.4528 C   0  0  0  0  0
   -2.7853   -0.3550   -0.3367 C   0  0  0  0  0
    2.0159    1.9682   -2.1082 C   0  0  0  0  0
    3.1642   -0.0567   -1.1797 C   0  0  0  0  0
    4.3911    1.2152   -4.8964 C   0  0  0  0  0
    5.2519    3.1293   -3.5347 C   0  0  0  0  0
    2.9926    1.4381   -4.3210 C   0  0  0  0  0
    3.8503    3.3499   -2.9680 C   0  0  0  0  0
    5.1989    2.5161   -4.9378 C   0  0  0  0  0
    6.6059    2.2662   -5.4755 C   0  0  0  0  0
    1.0169    2.8773   -2.1636 N   0  0  0  0  0
    3.0720    2.1048   -3.0170 N   0  0  0  0  0
   -1.1337    1.5943    0.5730 N   0  0  0  0  0
    3.0772   -1.1162   -1.9058 O   0  0  0  0  0
    4.1809    0.1868   -0.4286 O   0  0  0  0  0
   -3.6899    1.6841    0.9860 O   0  0  0  0  0
   -2.8357    2.0498   -1.3456 O   0  0  0  0  0
   -3.7099   -3.4028    1.4219 F   0  0  0  0  0
   -2.7254    1.3918   -0.0578 S   0  0  0  0  0
  1  2  1  0  0  0
  3 10  1  0  0  0
  4  8  1  0  0  0
  5  9  1  0  0  0
  6 19  1  0  0  0
  7 11  1  0  0  0
  7 12  1  0  0  0
  8 21  1  0  0  0
  9 26  1  0  0  0
 11 20  1  0  0  0
 12 22  1  0  0  0
 13 15  1  0  0  0
 13 17  1  0  0  0
 14 16  1  0  0  0
 14 17  1  0  0  0
 15 20  1  0  0  0
 16 20  1  0  0  0
 17 18  1  0  0  0
 27 10  1  0  0  0
 27 21  1  0  0  0
  1  3  2  0  0  0
  2  9  2  0  0  0
  4  7  2  0  0  0
  5 10  2  0  0  0
  6  8  2  0  0  0
 11 19  2  0  0  0
 12 23  2  0  0  0
 27 24  2  0  0  0
 27 25  2  0  0  0
M  CHG  1  22  -1
M  END
> <rmsd>
0.689006746

$$$$
ZINC35397435


 27 29  0  0  0  0  0  0  0  0999 V2000
   -3.5706   -2.5598    0.5582 C   0  0  0  0  0
   -3.3299   -3.1262   -0.6935 C   0  0  0  0  0
   -3.3979   -1.1887    0.7482 C   0  0  0  0  0
    0.8679    0.4570   -0.6595 C   0  0  0  0  0
   -2.7436   -0.9507   -1.5653 C   0  0  0  0  0
   -0.0604    2.4526   -1.5608 C   0  0  0  0  0
    1.8376    0.4944   -1.6553 C   0  0  0  0  0
   -0.1028    1.4510   -0.6044 C   0  0  0  0  0
   -2.9164   -2.3217   -1.7552 C   0  0  0  0  0
   -2.9843   -0.3841   -0.3136 C   0  0  0  0  0
    1.7929    1.5388   -2.5647 C   0  0  0  0  0
    2.8648   -0.5598   -1.7115 C   0  0  0  0  0
    3.9560    3.4847   -5.6025 C   0  0  0  0  0
    3.1827    2.5900   -6.5701 C   0  0  0  0  0
    4.7901    2.7006   -4.5892 C   0  0  0  0  0
    2.0849    1.7433   -5.9288 C   0  0  0  0  0
    4.0218    2.3001   -3.3283 C   0  0  0  0  0
    2.5876    0.8303   -4.8126 C   0  0  0  0  0
    0.8657    2.5223   -2.5431 N   0  0  0  0  0
    2.7662    1.5830   -3.5703 N   0  0  0  0  0
   -1.1097    1.4397    0.4040 N   0  0  0  0  0
    2.6288   -1.6168   -2.4074 O   0  0  0  0  0
    3.9633   -0.3884   -1.0627 O   0  0  0  0  0
   -3.6013    1.7331    1.0513 O   0  0  0  0  0
   -2.9448    2.0066   -1.3557 O   0  0  0  0  0
   -2.6845   -2.8659   -2.9570 F   0  0  0  0  0
   -2.7646    1.3555   -0.0724 S   0  0  0  0  0
  1  2  1  0  0  0
  3 10  1  0  0  0
  4  8  1  0  0  0
  5  9  1  0  0  0
  6 19  1  0  0  0
  7 11  1  0  0  0
  7 12  1  0  0  0
  8 21  1  0  0  0
  9 26  1  0  0  0
 11 20  1  0  0  0
 12 22  1  0  0  0
 13 14  1  0  0  0
 13 15  1  0  0  0
 14 16  1  0  0  0
 15 17  1  0  0  0
 16 18  1  0  0  0
 17 20  1  0  0  0
 18 20  1  0  0  0
 27 10  1  0  0  0
 27 21  1  0  0  0
  1  3  2  0  0  0
  2  9  2  0  0  0
  4  7  2  0  0  0
  5 10  2  0  0  0
  6  8  2  0  0  0
 11 19  2  0  0  0
 12 23  2  0  0  0
 27 24  2  0  0  0
 27 25  2  0  0  0
M  CHG  1  22  -1
M  END
> <rmsd>
0.510315001

$$$$
ZINC35397435


 27 29  0  0  0  0  0  0  0  0999 V2000
   -3.2800   -2.5843    0.4521 C   0  0  0  0  0
   -2.8804   -3.1081   -0.7773 C   0  0  0  0  0
   -3.2330   -1.2076    0.6721 C   0  0  0  0  0
    1.0041    0.7846   -0.3097 C   0  0  0  0  0
   -2.3867   -0.8788   -1.5668 C   0  0  0  0  0
    0.0112    2.7192   -1.2732 C   0  0  0  0  0
    2.0565    0.9141   -1.2093 C   0  0  0  0  0
   -0.0419    1.7003   -0.3357 C   0  0  0  0  0
   -2.4337   -2.2554   -1.7867 C   0  0  0  0  0
   -2.7863   -0.3549   -0.3373 C   0  0  0  0  0
    2.0155    1.9681   -2.1077 C   0  0  0  0  0
    3.1634   -0.0573   -1.1797 C   0  0  0  0  0
    4.2938    4.1279   -4.9072 C   0  0  0  0  0
    3.6861    3.1942   -5.9528 C   0  0  0  0  0
    5.0885    3.3919   -3.8282 C   0  0  0  0  0
    2.6026    2.2547   -5.4269 C   0  0  0  0  0
    4.2397    2.9113   -2.6497 C   0  0  0  0  0
    3.0687    1.3629   -4.2781 C   0  0  0  0  0
    1.0165    2.8772   -2.1631 N   0  0  0  0  0
    3.0718    2.1047   -3.0165 N   0  0  0  0  0
   -1.1344    1.5940    0.5731 N   0  0  0  0  0
    3.0763   -1.1166   -1.9060 O   0  0  0  0  0
    4.1800    0.1860   -0.4285 O   0  0  0  0  0
   -3.6907    1.6841    0.9859 O   0  0  0  0  0
   -2.8362    2.0502   -1.3455 O   0  0  0  0  0
   -2.0493   -2.7586   -2.9671 F   0  0  0  0  0
   -2.7261    1.3918   -0.0579 S   0  0  0  0  0
  1  2  1  0  0  0
  3 10  1  0  0  0
  4  8  1  0  0  0
  5  9  1  0  0  0
  6 19  1  0  0  0
  7 11  1  0  0  0
  7 12  1  0  0  0
  8 21  1  0  0  0
  9 26  1  0  0  0
 11 20  1  0  0  0
 12 22  1  0  0  0
 13 14  1  0  0  0
 13 15  1  0  0  0
 14 16  1  0  0  0
 15 17  1  0  0  0
 16 18  1  0  0  0
 17 20  1  0  0  0
 18 20  1  0  0  0
 27 10  1  0  0  0
 27 21  1  0  0  0
  1  3  2  0  0  0
  2  9  2  0  0  0
  4  7  2  0  0  0
  5 10  2  0  0  0
  6  8  2  0  0  0
 11 19  2  0  0  0
 12 23  2  0  0  0
 27 24  2  0  0  0
 27 25  2  0  0  0
M  CHG  1  22  -1
M  END
> <rmsd>
0.689402163

$$$$
ZINC35397435


 27 29  0  0  0  0  0  0  0  0999 V2000
   -2.4345   -2.2552   -1.7861 C   0  0  0  0  0
   -2.8814   -3.1079   -0.7767 C   0  0  0  0  0
   -2.3866   -0.8787   -1.5660 C   0  0  0  0  0
    1.0045    0.7852   -0.3092 C   0  0  0  0  0
   -3.2328   -1.2073    0.6730 C   0  0  0  0  0
    0.0114    2.7196   -1.2728 C   0  0  0  0  0
    2.0568    0.9147   -1.2088 C   0  0  0  0  0
   -0.0416    1.7008   -0.3353 C   0  0  0  0  0
   -3.2806   -2.5839    0.4528 C   0  0  0  0  0
   -2.7858   -0.3547   -0.3365 C   0  0  0  0  0
    2.0157    1.9685   -2.1074 C   0  0  0  0  0
    3.1638   -0.0566   -1.1791 C   0  0  0  0  0
    4.2937    4.1283   -4.9072 C   0  0  0  0  0
    3.6860    3.1943   -5.9527 C   0  0  0  0  0
    5.0885    3.3925   -3.8282 C   0  0  0  0  0
    2.6027    2.2547   -5.4266 C   0  0  0  0  0
    4.2398    2.9119   -2.6495 C   0  0  0  0  0
    3.0689    1.3632   -4.2777 C   0  0  0  0  0
    1.0166    2.8776   -2.1628 N   0  0  0  0  0
    3.0719    2.1051   -3.0162 N   0  0  0  0  0
   -1.1340    1.5944    0.5736 N   0  0  0  0  0
    3.0768   -1.1160   -1.9052 O   0  0  0  0  0
    4.1805    0.1870   -0.4280 O   0  0  0  0  0
   -3.6903    1.6843    0.9865 O   0  0  0  0  0
   -2.8360    2.0502   -1.3450 O   0  0  0  0  0
   -3.7106   -3.4028    1.4219 F   0  0  0  0  0
   -2.7257    1.3920   -0.0573 S   0  0  0  0  0
  1  2  1  0  0  0
  3 10  1  0  0  0
  4  8  1  0  0  0
  5  9  1  0  0  0
  6 19  1  0  0  0
  7 11  1  0  0  0
  7 12  1  0  0  0
  8 21  1  0  0  0
  9 26  1  0  0  0
 11 20  1  0  0  0
 12 22  1  0  0  0
 13 14  1  0  0  0
 13 15  1  0  0  0
 14 16  1  0  0  0
 15 17  1  0  0  0
 16 18  1  0  0  0
 17 20  1  0  0  0
 18 20  1  0  0  0
 27 10  1  0  0  0
 27 21  1  0  0  0
  1  3  2  0  0  0
  2  9  2  0  0  0
  4  7  2  0  0  0
  5 10  2  0  0  0
  6  8  2  0  0  0
 11 19  2  0  0  0
 12 23  2  0  0  0
 27 24  2  0  0  0
 27 25  2  0  0  0
M  CHG  1  22  -1
M  END
> <rmsd>
0.68896544

$$$$
ZINC35397435


 27 29  0  0  0  0  0  0  0  0999 V2000
   -2.9170   -2.3215   -1.7545 C   0  0  0  0  0
   -3.3308   -3.1259   -0.6928 C   0  0  0  0  0
   -2.7434   -0.9506   -1.5645 C   0  0  0  0  0
    0.8684    0.4575   -0.6589 C   0  0  0  0  0
   -3.3976   -1.1883    0.7490 C   0  0  0  0  0
   -0.0601    2.4529   -1.5605 C   0  0  0  0  0
    1.8381    0.4949   -1.6547 C   0  0  0  0  0
   -0.1024    1.4514   -0.6039 C   0  0  0  0  0
   -3.5711   -2.5593    0.5590 C   0  0  0  0  0
   -2.9837   -0.3840   -0.3128 C   0  0  0  0  0
    1.7933    1.5391   -2.5644 C   0  0  0  0  0
    2.8654   -0.5592   -1.7109 C   0  0  0  0  0
    3.9560    3.4849   -5.6024 C   0  0  0  0  0
    3.1828    2.5899   -6.5699 C   0  0  0  0  0
    4.7902    2.7010   -4.5890 C   0  0  0  0  0
    2.0852    1.7433   -5.9285 C   0  0  0  0  0
    4.0220    2.3006   -3.3280 C   0  0  0  0  0
    2.5879    0.8304   -4.8122 C   0  0  0  0  0
    0.8659    2.5226   -2.5429 N   0  0  0  0  0
    2.7666    1.5833   -3.5699 N   0  0  0  0  0
   -1.1093    1.4402    0.4045 N   0  0  0  0  0
    2.6295   -1.6163   -2.4066 O   0  0  0  0  0
    3.9639   -0.3876   -1.0621 O   0  0  0  0  0
   -3.6009    1.7333    1.0518 O   0  0  0  0  0
   -2.9445    2.0066   -1.3552 O   0  0  0  0  0
   -3.9693   -3.3318    1.5784 F   0  0  0  0  0
   -2.7641    1.3556   -0.0718 S   0  0  0  0  0
  1  2  1  0  0  0
  3 10  1  0  0  0
  4  8  1  0  0  0
  5  9  1  0  0  0
  6 19  1  0  0  0
  7 11  1  0  0  0
  7 12  1  0  0  0
  8 21  1  0  0  0
  9 26  1  0  0  0
 11 20  1  0  0  0
 12 22  1  0  0  0
 13 14  1  0  0  0
 13 15  1  0  0  0
 14 16  1  0  0  0
 15 17  1  0  0  0
 16 18  1  0  0  0
 17 20  1  0  0  0
 18 20  1  0  0  0
 27 10  1  0  0  0
 27 21  1  0  0  0
  1  3  2  0  0  0
  2  9  2  0  0  0
  4  7  2  0  0  0
  5 10  2  0  0  0
  6  8  2  0  0  0
 11 19  2  0  0  0
 12 23  2  0  0  0
 27 24  2  0  0  0
 27 25  2  0  0  0
M  CHG  1  22  -1
M  END
> <rmsd>
0.510058224

$$$$
ZINC93966867


 28 29  0  0  0  0  0  0  0  0999 V2000
   -4.0513   -3.0434   -0.6328 C   0  0  0  0  0
   -5.0186   -2.4427    0.1728 C   0  0  0  0  0
   -3.0210   -2.2755   -1.1757 C   0  0  0  0  0
   -4.9558   -1.0743    0.4354 C   0  0  0  0  0
   -2.9582   -0.9071   -0.9130 C   0  0  0  0  0
    2.3371   -1.4194   -0.1356 C   0  0  0  0  0
    1.3252   -1.5420    0.8168 C   0  0  0  0  0
    1.4633    0.7369   -0.7864 C   0  0  0  0  0
   -3.9255   -0.3064   -0.1075 C   0  0  0  0  0
    0.4514    0.6144    0.1659 C   0  0  0  0  0
    2.4060   -0.2799   -0.9371 C   0  0  0  0  0
    0.3824   -0.5252    0.9675 C   0  0  0  0  0
   -3.8588    1.1512    0.1723 C   0  0  0  0  0
   -0.5671    2.8441   -0.4131 C   0  0  0  0  0
   -3.1211    4.0122   -2.0265 C   0  0  0  0  0
   -1.7489    3.6862    0.0587 C   0  0  0  0  0
   -3.0644    3.3521   -0.6528 C   0  0  0  0  0
   -1.0292   -1.9856    2.2051 C   0  0  0  0  0
   -0.4981    1.6542    0.3068 N   0  0  0  0  0
   -3.2302    1.9230   -0.7918 N   0  0  0  0  0
    3.4358   -0.1570   -1.9071 N   0  0  0  0  0
    4.2726   -1.0844   -2.0263 O   0  0  0  0  0
   -4.3307    1.5831    1.2207 O   0  0  0  0  0
    0.1773    3.2108   -1.3162 O   0  0  0  0  0
    3.4809    0.8756   -2.6184 O   0  0  0  0  0
   -0.5984   -0.6646    1.9037 O   0  0  0  0  0
   -0.2555   -2.4448    3.2225 F   0  0  0  0  0
   -2.2998   -1.9432    2.6760 F   0  0  0  0  0
  1  2  1  0  0  0
  3  5  1  0  0  0
  4  9  1  0  0  0
  6 11  1  0  0  0
  7 12  1  0  0  0
  8 10  1  0  0  0
  9 13  1  0  0  0
 10 19  1  0  0  0
 11 21  1  0  0  0
 12 26  1  0  0  0
 13 20  1  0  0  0
 14 19  1  0  0  0
 15 17  1  0  0  0
 16 14  1  0  0  0
 16 17  1  0  0  0
 17 20  1  0  0  0
 18 26  1  0  0  0
 18 27  1  0  0  0
 18 28  1  0  0  0
 21 22  1  0  0  0
  1  3  2  0  0  0
  2  4  2  0  0  0
  5  9  2  0  0  0
  6  7  2  0  0  0
  8 11  2  0  0  0
 10 12  2  0  0  0
 13 23  2  0  0  0
 14 24  2  0  0  0
 21 25  2  0  0  0
M  CHG  2  21   1  22  -1
M  END
> <rmsd>
0.46766001

$$$$
ZINC64491165


 27 29  0  0  0  0  0  0  0  0999 V2000
    0.8691    2.5246   -2.5706 C   0  0  0  0  0
   -0.1068    2.5012   -1.5743 C   0  0  0  0  0
   -3.5397   -2.5659    0.5395 C   0  0  0  0  0
   -2.9053   -2.3073   -1.7773 C   0  0  0  0  0
   -3.3760   -1.1949    0.7374 C   0  0  0  0  0
   -2.7417   -0.9363   -1.5794 C   0  0  0  0  0
    0.8586    0.4767   -0.6763 C   0  0  0  0  0
    1.8344    0.5001   -1.6727 C   0  0  0  0  0
    1.8397    1.5240   -2.6198 C   0  0  0  0  0
   -0.1121    1.4773   -0.6271 C   0  0  0  0  0
   -3.3044   -3.1222   -0.7178 C   0  0  0  0  0
   -2.9770   -0.3801   -0.3220 C   0  0  0  0  0
    2.8491   -0.5701   -1.7020 C   0  0  0  0  0
    3.6826    2.7456   -3.6841 C   0  0  0  0  0
    2.5563    0.8923   -4.9055 C   0  0  0  0  0
    4.9906    2.4130   -4.3891 C   0  0  0  0  0
    3.8662    0.5670   -5.6119 C   0  0  0  0  0
    5.9395    1.5921   -6.5446 C   0  0  0  0  0
    2.8100    1.5655   -3.6277 N   0  0  0  0  0
   -1.1112    1.4538    0.3925 N   0  0  0  0  0
    4.6893    1.8225   -5.7432 N   0  0  0  0  0
    2.6045   -1.6332   -2.3835 O   0  0  0  0  0
    3.9421   -0.4015   -1.0449 O   0  0  0  0  0
   -3.5970    1.7229    1.0633 O   0  0  0  0  0
   -2.9649    2.0180   -1.3478 O   0  0  0  0  0
   -3.4603   -4.4389   -0.9075 F   0  0  0  0  0
   -2.7679    1.3594   -0.0708 S   0  0  0  0  0
  1  9  1  0  0  0
  2 10  1  0  0  0
  3 11  1  0  0  0
  4  6  1  0  0  0
  5 12  1  0  0  0
  7  8  1  0  0  0
  8 13  1  0  0  0
  9 19  1  0  0  0
 10 20  1  0  0  0
 11 26  1  0  0  0
 13 22  1  0  0  0
 14 16  1  0  0  0
 14 19  1  0  0  0
 15 17  1  0  0  0
 15 19  1  0  0  0
 16 21  1  0  0  0
 17 21  1  0  0  0
 18 21  1  0  0  0
 27 12  1  0  0  0
 27 20  1  0  0  0
  1  2  2  0  0  0
  3  5  2  0  0  0
  4 11  2  0  0  0
  6 12  2  0  0  0
  7 10  2  0  0  0
  8  9  2  0  0  0
 13 23  2  0  0  0
 27 24  2  0  0  0
 27 25  2  0  0  0
M  CHG  2  21   1  22  -1
M  END
> <rmsd>
0.526287794

$$$$
ZINC64491165


 27 29  0  0  0  0  0  0  0  0999 V2000
    1.0214    2.8838   -2.1898 C   0  0  0  0  0
   -0.0380    2.7668   -1.2902 C   0  0  0  0  0
   -3.2445   -2.5882    0.4336 C   0  0  0  0  0
   -2.4197   -2.2384   -1.8102 C   0  0  0  0  0
   -3.2080   -1.2127    0.6615 C   0  0  0  0  0
   -2.3832   -0.8628   -1.5822 C   0  0  0  0  0
    0.9954    0.8063   -0.3282 C   0  0  0  0  0
    2.0549    0.9233   -1.2280 C   0  0  0  0  0
    2.0679    1.9621   -2.1588 C   0  0  0  0  0
   -0.0511    1.7281   -0.3593 C   0  0  0  0  0
   -2.8504   -3.1012   -0.8022 C   0  0  0  0  0
   -2.7774   -0.3499   -0.3464 C   0  0  0  0  0
    3.1487   -0.0648   -1.1738 C   0  0  0  0  0
    3.9003    3.3416   -3.0310 C   0  0  0  0  0
    3.0412    1.4301   -4.3738 C   0  0  0  0  0
    5.2902    3.1239   -3.6134 C   0  0  0  0  0
    4.4326    1.2198   -4.9574 C   0  0  0  0  0
    6.4968    2.4188   -5.6791 C   0  0  0  0  0
    3.1215    2.0969   -3.0703 N   0  0  0  0  0
   -1.1357    1.6086    0.5614 N   0  0  0  0  0
    5.1633    2.5373   -4.9964 N   0  0  0  0  0
    3.0527   -1.1307   -1.8873 O   0  0  0  0  0
    4.1593    0.1752   -0.4148 O   0  0  0  0  0
   -3.6865    1.6729    0.9981 O   0  0  0  0  0
   -2.8581    2.0606   -1.3393 O   0  0  0  0  0
   -2.8842   -4.4223   -1.0206 F   0  0  0  0  0
   -2.7296    1.3955   -0.0569 S   0  0  0  0  0
  1  9  1  0  0  0
  2 10  1  0  0  0
  3 11  1  0  0  0
  4  6  1  0  0  0
  5 12  1  0  0  0
  7  8  1  0  0  0
  8 13  1  0  0  0
  9 19  1  0  0  0
 10 20  1  0  0  0
 11 26  1  0  0  0
 13 22  1  0  0  0
 14 16  1  0  0  0
 14 19  1  0  0  0
 15 17  1  0  0  0
 15 19  1  0  0  0
 16 21  1  0  0  0
 17 21  1  0  0  0
 18 21  1  0  0  0
 27 12  1  0  0  0
 27 20  1  0  0  0
  1  2  2  0  0  0
  3  5  2  0  0  0
  4 11  2  0  0  0
  6 12  2  0  0  0
  7 10  2  0  0  0
  8  9  2  0  0  0
 13 23  2  0  0  0
 27 24  2  0  0  0
 27 25  2  0  0  0
M  CHG  2  21   1  22  -1
M  END
> <rmsd>
0.707329512

$$$$
ZINC22405397


 29 32  0  0  0  0  0  0  0  0999 V2000
   -4.5218   -3.4847   -0.3769 C   0  0  0  0  0
   -4.5585   -2.6722    0.7648 C   0  0  0  0  0
    1.5434   -1.0495    1.2966 C   0  0  0  0  0
   -4.2503   -2.9319   -1.6280 C   0  0  0  0  0
   -4.3249   -1.2964    0.6722 C   0  0  0  0  0
    0.5153   -0.1086    1.3543 C   0  0  0  0  0
    2.4221   -1.0570    0.2133 C   0  0  0  0  0
    1.2444    0.8171   -0.7549 C   0  0  0  0  0
   -4.0197   -1.5670   -1.7108 C   0  0  0  0  0
   -4.0559   -0.7543   -0.5761 C   0  0  0  0  0
    0.3658    0.8247    0.3284 C   0  0  0  0  0
    2.2726   -0.1237   -0.8125 C   0  0  0  0  0
   -3.7449    1.6645   -0.0616 C   0  0  0  0  0
   -0.9687    2.7712   -0.5400 C   0  0  0  0  0
   -3.7133   -0.7811   -2.9435 C   0  0  0  0  0
   -4.3785    5.3137   -1.0338 C   0  0  0  0  0
   -3.1226    5.9090   -0.4055 C   0  0  0  0  0
   -4.6480    3.9040   -0.5155 C   0  0  0  0  0
   -1.9122    5.0050   -0.6205 C   0  0  0  0  0
   -3.5666    0.6413   -2.3923 C   0  0  0  0  0
   -3.4389    2.9835   -0.7094 C   0  0  0  0  0
   -2.1729    3.5911   -0.1050 C   0  0  0  0  0
   -3.7897    0.5842   -0.9323 N   0  0  0  0  0
   -0.6773    1.7791    0.3875 N   0  0  0  0  0
    3.1661   -0.1331   -1.9162 N   0  0  0  0  0
    4.0829   -0.9891   -1.9489 O   0  0  0  0  0
   -3.9304    1.6195    1.1546 O   0  0  0  0  0
   -0.3879    3.0179   -1.5920 O   0  0  0  0  0
    3.0141    0.7147   -2.8286 O   0  0  0  0  0
  1  2  1  0  0  0
  3  7  1  0  0  0
  4  9  1  0  0  0
  5 10  1  0  0  0
  6 11  1  0  0  0
  8 12  1  0  0  0
 10 23  1  0  0  0
 11 24  1  0  0  0
 12 25  1  0  0  0
 13 23  1  0  0  0
 14 24  1  0  0  0
 15  9  1  0  0  0
 15 20  1  0  0  0
 16 17  1  0  0  0
 16 18  1  0  0  0
 17 19  1  0  0  0
 18 21  1  0  0  0
 19 22  1  0  0  0
 20 23  1  0  0  0
 21 13  1  0  0  0
 21 22  1  0  0  0
 22 14  1  0  0  0
 25 26  1  0  0  0
  1  4  2  0  0  0
  2  5  2  0  0  0
  3  6  2  0  0  0
  7 12  2  0  0  0
  8 11  2  0  0  0
  9 10  2  0  0  0
 13 27  2  0  0  0
 14 28  2  0  0  0
 25 29  2  0  0  0
M  CHG  2  25   1  26  -1
M  END
> <rmsd>
0.59397006

$$$$
ZINC33253486


 27 28  0  0  0  0  0  0  0  0999 V2000
   -0.1061    2.5013   -1.5745 C   0  0  0  0  0
    0.8694    2.5243   -2.5711 C   0  0  0  0  0
   -3.5395   -2.5659    0.5390 C   0  0  0  0  0
   -2.9049   -2.3073   -1.7778 C   0  0  0  0  0
   -3.3757   -1.1950    0.7369 C   0  0  0  0  0
   -2.7412   -0.9363   -1.5799 C   0  0  0  0  0
    0.8585    0.4763   -0.6767 C   0  0  0  0  0
    1.8341    0.4993   -1.6734 C   0  0  0  0  0
   -0.1116    1.4773   -0.6273 C   0  0  0  0  0
    1.8396    1.5233   -2.6205 C   0  0  0  0  0
   -3.3039   -3.1221   -0.7184 C   0  0  0  0  0
   -2.9765   -0.3801   -0.3225 C   0  0  0  0  0
    2.8491   -0.5706   -1.7028 C   0  0  0  0  0
    5.3057    4.4483   -3.7019 C   0  0  0  0  0
    1.4006    0.9786   -7.1569 C   0  0  0  0  0
    3.9817    3.7164   -3.8693 C   0  0  0  0  0
    1.6837    1.6939   -5.8436 C   0  0  0  0  0
    4.0612    2.2526   -3.4528 C   0  0  0  0  0
    2.5627    0.8762   -4.9049 C   0  0  0  0  0
   -1.1109    1.4537    0.3923 N   0  0  0  0  0
    2.8133    1.5637   -3.6333 N   0  0  0  0  0
    2.6046   -1.6338   -2.3845 O   0  0  0  0  0
    3.9419   -0.4021   -1.0455 O   0  0  0  0  0
   -3.5967    1.7229    1.0628 O   0  0  0  0  0
   -2.9644    2.0179   -1.3482 O   0  0  0  0  0
   -3.4599   -4.4389   -0.9081 F   0  0  0  0  0
   -2.7675    1.3594   -0.0712 S   0  0  0  0  0
  1  9  1  0  0  0
  2 10  1  0  0  0
  3 11  1  0  0  0
  4  6  1  0  0  0
  5 12  1  0  0  0
  7  8  1  0  0  0
  8 13  1  0  0  0
  9 20  1  0  0  0
 10 21  1  0  0  0
 11 26  1  0  0  0
 13 22  1  0  0  0
 14 16  1  0  0  0
 15 17  1  0  0  0
 16 18  1  0  0  0
 17 19  1  0  0  0
 18 21  1  0  0  0
 19 21  1  0  0  0
 27 12  1  0  0  0
 27 20  1  0  0  0
  1  2  2  0  0  0
  3  5  2  0  0  0
  4 11  2  0  0  0
  6 12  2  0  0  0
  7  9  2  0  0  0
  8 10  2  0  0  0
 13 23  2  0  0  0
 27 24  2  0  0  0
 27 25  2  0  0  0
M  CHG  1  22  -1
M  END
> <rmsd>
0.526576877

$$$$
ZINC33253486


 27 28  0  0  0  0  0  0  0  0999 V2000
   -0.0372    2.7667   -1.2902 C   0  0  0  0  0
    1.0221    2.8832   -2.1901 C   0  0  0  0  0
   -3.2445   -2.5882    0.4332 C   0  0  0  0  0
   -2.4193   -2.2385   -1.8105 C   0  0  0  0  0
   -3.2078   -1.2126    0.6611 C   0  0  0  0  0
   -2.3827   -0.8628   -1.5826 C   0  0  0  0  0
    0.9955    0.8056   -0.3284 C   0  0  0  0  0
    2.0548    0.9222   -1.2284 C   0  0  0  0  0
   -0.0505    1.7279   -0.3593 C   0  0  0  0  0
    2.0681    1.9609   -2.1591 C   0  0  0  0  0
   -2.8500   -3.1012   -0.8026 C   0  0  0  0  0
   -2.7769   -0.3499   -0.3468 C   0  0  0  0  0
    3.1488   -0.0657   -1.1741 C   0  0  0  0  0
    5.3799    5.1637   -2.8761 C   0  0  0  0  0
    2.0972    1.4684   -6.7226 C   0  0  0  0  0
    4.1386    4.3353   -3.1758 C   0  0  0  0  0
    2.2000    2.1789   -5.3805 C   0  0  0  0  0
    4.2935    2.8744   -2.7702 C   0  0  0  0  0
    3.0492    1.4139   -4.3724 C   0  0  0  0  0
   -1.1354    1.6085    0.5612 N   0  0  0  0  0
    3.1257    2.0950   -3.0752 N   0  0  0  0  0
    3.0530   -1.1317   -1.8877 O   0  0  0  0  0
    4.1592    0.1741   -0.4149 O   0  0  0  0  0
   -3.6862    1.6730    0.9975 O   0  0  0  0  0
   -2.8574    2.0606   -1.3397 O   0  0  0  0  0
   -2.8840   -4.4223   -1.0210 F   0  0  0  0  0
   -2.7291    1.3956   -0.0573 S   0  0  0  0  0
  1  9  1  0  0  0
  2 10  1  0  0  0
  3 11  1  0  0  0
  4  6  1  0  0  0
  5 12  1  0  0  0
  7  8  1  0  0  0
  8 13  1  0  0  0
  9 20  1  0  0  0
 10 21  1  0  0  0
 11 26  1  0  0  0
 13 22  1  0  0  0
 14 16  1  0  0  0
 15 17  1  0  0  0
 16 18  1  0  0  0
 17 19  1  0  0  0
 18 21  1  0  0  0
 19 21  1  0  0  0
 27 12  1  0  0  0
 27 20  1  0  0  0
  1  2  2  0  0  0
  3  5  2  0  0  0
  4 11  2  0  0  0
  6 12  2  0  0  0
  7  9  2  0  0  0
  8 10  2  0  0  0
 13 23  2  0  0  0
 27 24  2  0  0  0
 27 25  2  0  0  0
M  CHG  1  22  -1
M  END
> <rmsd>
0.707501829

$$$$
ZINC03927198


 26 28  0  0  0  0  0  0  0  0999 V2000
   -4.4885   -1.1659    0.4531 C   0  0  0  0  0
   -3.3991   -0.4817   -0.0440 C   0  0  0  0  0
   -2.9991   -2.4396   -0.9477 C   0  0  0  0  0
    3.6168   -0.6436    0.8752 C   0  0  0  0  0
    3.0759   -0.1812   -0.2763 C   0  0  0  0  0
    1.1725    1.2693   -1.1004 C   0  0  0  0  0
    5.7310   -1.4570    0.0602 C   0  0  0  0  0
    4.7200   -1.5837    0.9295 C   0  0  0  0  0
   -3.1200    0.9512    0.2444 C   0  0  0  0  0
    3.5148   -0.7365   -1.6307 C   0  0  0  0  0
   -1.8952    1.5885   -0.3581 C   0  0  0  0  0
    3.1248   -0.2475    2.2652 C   0  0  0  0  0
    0.5046    2.0065    0.0971 C   0  0  0  0  0
    1.7410    1.5506    0.9045 C   0  0  0  0  0
   -2.5437   -1.2106   -0.8471 N   0  0  0  0  0
   -3.9181    1.6468    0.9966 N   0  0  0  0  0
    2.0897    0.7531   -0.2552 N   0  0  0  0  0
   -2.3965   -3.4234   -1.6666 N   0  0  0  0  0
   -0.8054    1.4663    0.4582 N   0  0  0  0  0
    3.3226   -1.9703   -1.7754 O   0  0  0  0  0
    0.9427    1.1274   -2.2784 O   0  0  0  0  0
    4.0063    0.1184   -2.4103 O   0  0  0  0  0
   -2.0005    2.1197   -1.4519 O   0  0  0  0  0
   -3.4813    2.9670    1.1352 O   0  0  0  0  0
   -4.4516   -2.7880   -0.1027 S   0  0  0  0  0
    1.4309    0.4392    2.2947 S   0  0  0  0  0
  1 25  1  0  0  0
  2  9  1  0  0  0
  2 15  1  0  0  0
  3 18  1  0  0  0
  3 25  1  0  0  0
  4  8  1  0  0  0
  5 10  1  0  0  0
  5 17  1  0  0  0
  6 17  1  0  0  0
  9 11  1  0  0  0
 10 20  1  0  0  0
 11 19  1  0  0  0
 12  4  1  0  0  0
 12 26  1  0  0  0
 13  6  1  0  0  0
 13 14  1  0  0  0
 13 19  1  0  0  0
 14 17  1  0  0  0
 14 26  1  0  0  0
 16 24  1  0  0  0
  1  2  2  0  0  0
  3 15  2  0  0  0
  4  5  2  0  0  0
  6 21  2  0  0  0
  7  8  2  0  0  0
  9 16  2  0  0  0
 10 22  2  0  0  0
 11 23  2  0  0  0
M  CHG  1  20  -1
M  END
> <rmsd>
0.0984647572

$$$$
ZINC03927198


 26 28  0  0  0  0  0  0  0  0999 V2000
   -4.2653   -1.2743    0.3300 C   0  0  0  0  0
   -3.2523   -0.4570   -0.1262 C   0  0  0  0  0
   -2.6750   -2.3046   -1.1573 C   0  0  0  0  0
    3.7559    0.0031    0.7499 C   0  0  0  0  0
    3.1606    0.4842   -0.3666 C   0  0  0  0  0
    1.1176    1.7933   -1.0862 C   0  0  0  0  0
    5.9299   -0.5473   -0.1255 C   0  0  0  0  0
    4.9451   -0.8271    0.7381 C   0  0  0  0  0
   -3.1097    0.9746    0.2537 C   0  0  0  0  0
    3.6366    0.0625   -1.7562 C   0  0  0  0  0
   -1.9586    1.7651   -0.3113 C   0  0  0  0  0
    3.2427    0.2593    2.1649 C   0  0  0  0  0
    0.3944    2.3836    0.1598 C   0  0  0  0  0
    1.6776    1.9987    0.9303 C   0  0  0  0  0
   -2.3392   -1.0463   -0.9788 N   0  0  0  0  0
   -3.9631    1.5397    1.0531 N   0  0  0  0  0
    2.0892    1.3151   -0.2804 N   0  0  0  0  0
   -1.9879   -3.1770   -1.9414 N   0  0  0  0  0
   -0.8534    1.6968    0.4906 N   0  0  0  0  0
    3.5628   -1.1723   -1.9802 O   0  0  0  0  0
    0.8900    1.7060   -2.2699 O   0  0  0  0  0
    4.0350    1.0094   -2.4806 O   0  0  0  0  0
   -2.1263    2.3530   -1.3677 O   0  0  0  0  0
   -3.6543    2.8843    1.2755 O   0  0  0  0  0
   -4.0780   -2.8459   -0.3305 S   0  0  0  0  0
    1.4910    0.7753    2.2464 S   0  0  0  0  0
  1 25  1  0  0  0
  2  9  1  0  0  0
  2 15  1  0  0  0
  3 18  1  0  0  0
  3 25  1  0  0  0
  4  8  1  0  0  0
  5 10  1  0  0  0
  5 17  1  0  0  0
  6 17  1  0  0  0
  9 11  1  0  0  0
 10 20  1  0  0  0
 11 19  1  0  0  0
 12  4  1  0  0  0
 12 26  1  0  0  0
 13  6  1  0  0  0
 13 14  1  0  0  0
 13 19  1  0  0  0
 14 17  1  0  0  0
 14 26  1  0  0  0
 16 24  1  0  0  0
  1  2  2  0  0  0
  3 15  2  0  0  0
  4  5  2  0  0  0
  6 21  2  0  0  0
  7  8  2  0  0  0
  9 16  2  0  0  0
 10 22  2  0  0  0
 11 23  2  0  0  0
M  CHG  1  20  -1
M  END
> <rmsd>
0.345164657

$$$$
ZINC03927198


 26 28  0  0  0  0  0  0  0  0999 V2000
   -2.5769   -1.2707   -0.8622 C   0  0  0  0  0
   -3.3827   -0.4848   -0.0654 C   0  0  0  0  0
   -4.5246   -2.3535    0.0523 C   0  0  0  0  0
    3.6303   -0.6405    0.8770 C   0  0  0  0  0
    3.0925   -0.1713   -0.2733 C   0  0  0  0  0
    1.1894    1.2813   -1.0943 C   0  0  0  0  0
    5.7488   -1.4446    0.0639 C   0  0  0  0  0
    4.7349   -1.5789    0.9288 C   0  0  0  0  0
   -3.1071    0.9467    0.2336 C   0  0  0  0  0
    3.5371   -0.7167   -1.6298 C   0  0  0  0  0
   -1.8814    1.5901   -0.3604 C   0  0  0  0  0
    3.1327   -0.2545    2.2679 C   0  0  0  0  0
    0.5160    2.0093    0.1059 C   0  0  0  0  0
    1.7504    1.5502    0.9145 C   0  0  0  0  0
   -4.5003   -1.1038    0.4596 N   0  0  0  0  0
   -3.9091    1.6358    0.9877 N   0  0  0  0  0
    2.1046    0.7611   -0.2493 N   0  0  0  0  0
   -5.4922   -3.2488    0.3845 N   0  0  0  0  0
   -0.7942    1.4644    0.4588 N   0  0  0  0  0
    3.3476   -1.9499   -1.7835 O   0  0  0  0  0
    0.9639    1.1469   -2.2739 O   0  0  0  0  0
    4.0297    0.1443   -2.4020 O   0  0  0  0  0
   -1.9839    2.1285   -1.4510 O   0  0  0  0  0
   -3.4752    2.9558    1.1365 O   0  0  0  0  0
   -3.2344   -2.8515   -0.9638 S   0  0  0  0  0
    1.4376    0.4290    2.2961 S   0  0  0  0  0
  1 25  1  0  0  0
  2  9  1  0  0  0
  2 15  1  0  0  0
  3 18  1  0  0  0
  3 25  1  0  0  0
  4  8  1  0  0  0
  5 10  1  0  0  0
  5 17  1  0  0  0
  6 17  1  0  0  0
  9 11  1  0  0  0
 10 20  1  0  0  0
 11 19  1  0  0  0
 12  4  1  0  0  0
 12 26  1  0  0  0
 13  6  1  0  0  0
 13 14  1  0  0  0
 13 19  1  0  0  0
 14 17  1  0  0  0
 14 26  1  0  0  0
 16 24  1  0  0  0
  1  2  2  0  0  0
  3 15  2  0  0  0
  4  5  2  0  0  0
  6 21  2  0  0  0
  7  8  2  0  0  0
  9 16  2  0  0  0
 10 22  2  0  0  0
 11 23  2  0  0  0
M  CHG  1  20  -1
M  END
> <rmsd>
0.0553064086

$$$$
ZINC03927198


 26 28  0  0  0  0  0  0  0  0999 V2000
   -2.3667   -1.1071   -0.9980 C   0  0  0  0  0
   -3.2364   -0.4560   -0.1486 C   0  0  0  0  0
   -4.1925   -2.4298   -0.1499 C   0  0  0  0  0
    3.7679    0.0045    0.7577 C   0  0  0  0  0
    3.1764    0.4934   -0.3575 C   0  0  0  0  0
    1.1347    1.8060   -1.0749 C   0  0  0  0  0
    5.9458   -0.5370   -0.1136 C   0  0  0  0  0
    4.9580   -0.8244    0.7441 C   0  0  0  0  0
   -3.0967    0.9729    0.2427 C   0  0  0  0  0
    3.6581    0.0827   -1.7484 C   0  0  0  0  0
   -1.9443    1.7688   -0.3120 C   0  0  0  0  0
    3.2491    0.2494    2.1726 C   0  0  0  0  0
    0.4063    2.3860    0.1727 C   0  0  0  0  0
    1.6868    1.9966    0.9452 C   0  0  0  0  0
   -4.2843   -1.2128    0.3384 N   0  0  0  0  0
   -3.9538    1.5310    1.0431 N   0  0  0  0  0
    2.1038    1.3226   -0.2690 N   0  0  0  0  0
   -5.0664   -3.4339    0.1261 N   0  0  0  0  0
   -0.8421    1.6955    0.4936 N   0  0  0  0  0
    3.5864   -1.1504   -1.9820 O   0  0  0  0  0
    0.9118    1.7273   -2.2601 O   0  0  0  0  0
    4.0583    1.0355   -2.4640 O   0  0  0  0  0
   -2.1086    2.3645   -1.3645 O   0  0  0  0  0
   -3.6472    2.8742    1.2768 O   0  0  0  0  0
   -2.8703   -2.7339   -1.2009 S   0  0  0  0  0
    1.4965    0.7630    2.2514 S   0  0  0  0  0
  1 25  1  0  0  0
  2  9  1  0  0  0
  2 15  1  0  0  0
  3 18  1  0  0  0
  3 25  1  0  0  0
  4  8  1  0  0  0
  5 10  1  0  0  0
  5 17  1  0  0  0
  6 17  1  0  0  0
  9 11  1  0  0  0
 10 20  1  0  0  0
 11 19  1  0  0  0
 12  4  1  0  0  0
 12 26  1  0  0  0
 13  6  1  0  0  0
 13 14  1  0  0  0
 13 19  1  0  0  0
 14 17  1  0  0  0
 14 26  1  0  0  0
 16 24  1  0  0  0
  1  2  2  0  0  0
  3 15  2  0  0  0
  4  5  2  0  0  0
  6 21  2  0  0  0
  7  8  2  0  0  0
  9 16  2  0  0  0
 10 22  2  0  0  0
 11 23  2  0  0  0
M  CHG  1  20  -1
M  END
> <rmsd>
0.304749489

$$$$
ZINC08584438


 26 28  0  0  0  0  0  0  0  0999 V2000
   -4.6546   -1.0784    0.5478 C   0  0  0  0  0
   -3.5314   -0.4746    0.0226 C   0  0  0  0  0
   -3.2466   -2.4831   -0.8112 C   0  0  0  0  0
    4.3677    0.3321    0.5702 C   0  0  0  0  0
    3.4531    0.1690   -0.4157 C   0  0  0  0  0
    1.1456    0.9715   -1.0962 C   0  0  0  0  0
    5.8246   -1.5300    0.1168 C   0  0  0  0  0
    5.6858   -0.2731    0.5581 C   0  0  0  0  0
   -3.1710    0.9497    0.2581 C   0  0  0  0  0
    3.8041   -0.5752   -1.7031 C   0  0  0  0  0
   -1.9158    1.4952   -0.3712 C   0  0  0  0  0
    4.1289    1.1746    1.8221 C   0  0  0  0  0
    0.5060    1.7939    0.0602 C   0  0  0  0  0
    1.6457    1.2177    0.9287 C   0  0  0  0  0
   -2.7226   -1.2787   -0.7566 N   0  0  0  0  0
   -3.9249    1.7155    0.9874 N   0  0  0  0  0
    2.2144    0.7203   -0.3102 N   0  0  0  0  0
   -2.7039   -3.5243   -1.4962 N   0  0  0  0  0
   -0.8288    1.3419    0.4447 N   0  0  0  0  0
    4.7472   -0.0656   -2.3599 O   0  0  0  0  0
    0.8687    0.7112   -2.2435 O   0  0  0  0  0
    3.1008   -1.5934   -1.9254 O   0  0  0  0  0
   -1.9972    1.9919   -1.4833 O   0  0  0  0  0
   -3.4142    3.0133    1.0767 O   0  0  0  0  0
   -4.7116   -2.7189    0.0509 S   0  0  0  0  0
    2.7931    2.4096    1.6505 S   0  0  0  0  0
  1 25  1  0  0  0
  2  9  1  0  0  0
  2 15  1  0  0  0
  3 18  1  0  0  0
  3 25  1  0  0  0
  4  8  1  0  0  0
  5 10  1  0  0  0
  5 17  1  0  0  0
  6 17  1  0  0  0
  9 11  1  0  0  0
 10 20  1  0  0  0
 11 19  1  0  0  0
 12  4  1  0  0  0
 12 26  1  0  0  0
 13  6  1  0  0  0
 13 14  1  0  0  0
 13 19  1  0  0  0
 14 17  1  0  0  0
 14 26  1  0  0  0
 16 24  1  0  0  0
  1  2  2  0  0  0
  3 15  2  0  0  0
  4  5  2  0  0  0
  6 21  2  0  0  0
  7  8  2  0  0  0
  9 16  2  0  0  0
 10 22  2  0  0  0
 11 23  2  0  0  0
M  CHG  1  20  -1
M  END
> <rmsd>
0.159003735

$$$$
ZINC08584438


 26 28  0  0  0  0  0  0  0  0999 V2000
   -2.7587   -1.3385   -0.7699 C   0  0  0  0  0
   -3.5147   -0.4804    0.0010 C   0  0  0  0  0
   -4.7583   -2.2769    0.1913 C   0  0  0  0  0
    4.3809    0.3393    0.5791 C   0  0  0  0  0
    3.4699    0.1804   -0.4108 C   0  0  0  0  0
    1.1629    0.9823   -1.0938 C   0  0  0  0  0
    5.8432   -1.5170    0.1189 C   0  0  0  0  0
    5.7004   -0.2631    0.5675 C   0  0  0  0  0
   -3.1581    0.9432    0.2464 C   0  0  0  0  0
    3.8266   -0.5551   -1.7015 C   0  0  0  0  0
   -1.9019    1.4952   -0.3754 C   0  0  0  0  0
    4.1363    1.1736    1.8353 C   0  0  0  0  0
    0.5179    1.7963    0.0657 C   0  0  0  0  0
    1.6559    1.2171    0.9342 C   0  0  0  0  0
   -4.6619   -1.0166    0.5526 N   0  0  0  0  0
   -3.9158    1.7030    0.9781 N   0  0  0  0  0
    2.2296    0.7285   -0.3059 N   0  0  0  0  0
   -5.7722   -3.1040    0.5597 N   0  0  0  0  0
   -0.8173    1.3391    0.4431 N   0  0  0  0  0
    4.7706   -0.0395   -2.3522 O   0  0  0  0  0
    0.8902    0.7285   -2.2435 O   0  0  0  0  0
    3.1261   -1.5734   -1.9324 O   0  0  0  0  0
   -1.9808    1.9986   -1.4846 O   0  0  0  0  0
   -3.4081    3.0012    1.0770 O   0  0  0  0  0
   -3.5040   -2.8826   -0.8111 S   0  0  0  0  0
    2.7985    2.4069    1.6671 S   0  0  0  0  0
  1 25  1  0  0  0
  2  9  1  0  0  0
  2 15  1  0  0  0
  3 18  1  0  0  0
  3 25  1  0  0  0
  4  8  1  0  0  0
  5 10  1  0  0  0
  5 17  1  0  0  0
  6 17  1  0  0  0
  9 11  1  0  0  0
 10 20  1  0  0  0
 11 19  1  0  0  0
 12  4  1  0  0  0
 12 26  1  0  0  0
 13  6  1  0  0  0
 13 14  1  0  0  0
 13 19  1  0  0  0
 14 17  1  0  0  0
 14 26  1  0  0  0
 16 24  1  0  0  0
  1  2  2  0  0  0
  3 15  2  0  0  0
  4  5  2  0  0  0
  6 21  2  0  0  0
  7  8  2  0  0  0
  9 16  2  0  0  0
 10 22  2  0  0  0
 11 23  2  0  0  0
M  CHG  1  20  -1
M  END
> <rmsd>
0.185021922

$$$$
ZINC64683451


 29 31  0  0  0  0  0  0  0  0999 V2000
   -7.9989    4.0453   -0.7542 C   0  0  0  0  0
   -7.4557    2.8550   -0.2709 C   0  0  0  0  0
   -7.1843    5.1646   -0.9260 C   0  0  0  0  0
   -6.0980    2.7839    0.0408 C   0  0  0  0  0
   -5.8267    5.0935   -0.6143 C   0  0  0  0  0
   -5.2834    3.9032   -0.1309 C   0  0  0  0  0
   -3.3120   -2.2790    0.7878 C   0  0  0  0  0
   -4.5484   -2.1722    0.0268 C   0  0  0  0  0
   -2.1078   -2.1407    0.2077 C   0  0  0  0  0
   -4.5837   -1.9311   -1.2954 C   0  0  0  0  0
   -2.0519   -1.8817   -1.1978 C   0  0  0  0  0
   -1.0737   -1.6910   -2.0950 C   0  0  0  0  0
   -3.2953   -1.7710   -1.9839 C   0  0  0  0  0
   -3.2236    2.7015    0.6801 C   0  0  0  0  0
    2.4922   -0.2859   -1.3773 C   0  0  0  0  0
   -0.4249    1.4876   -0.5444 C   0  0  0  0  0
   -1.6355   -1.4536   -3.4739 C   0  0  0  0  0
   -4.9780    6.3081   -0.8083 C   0  0  0  0  0
    0.3966   -1.6916   -1.8742 C   0  0  0  0  0
   -1.7589    3.0326    0.8910 C   0  0  0  0  0
    0.9670   -0.2943   -1.5888 C   0  0  0  0  0
   -3.0847   -1.5387   -3.2213 N   0  0  0  0  0
   -3.9085    3.8109    0.1914 N   0  0  0  0  0
   -0.9534    1.8500    0.6916 N   0  0  0  0  0
    0.3077    0.3090   -0.4508 N   0  0  0  0  0
    3.1511   -1.1697   -1.9920 O   0  0  0  0  0
   -3.6827    1.5882    0.9150 O   0  0  0  0  0
    2.9051    0.6189   -0.5944 O   0  0  0  0  0
   -0.5842    2.1262   -1.5839 O   0  0  0  0  0
  1  2  1  0  0  0
  3  5  1  0  0  0
  4  6  1  0  0  0
  6 23  1  0  0  0
  7  8  1  0  0  0
  9 11  1  0  0  0
 10 13  1  0  0  0
 11 13  1  0  0  0
 14 23  1  0  0  0
 15 26  1  0  0  0
 16 24  1  0  0  0
 16 25  1  0  0  0
 17 12  1  0  0  0
 17 22  1  0  0  0
 18  5  1  0  0  0
 19 12  1  0  0  0
 19 21  1  0  0  0
 20 14  1  0  0  0
 20 24  1  0  0  0
 21 15  1  0  0  0
 21 25  1  0  0  0
  1  3  2  0  0  0
  2  4  2  0  0  0
  5  6  2  0  0  0
  7  9  2  0  0  0
  8 10  2  0  0  0
 11 12  2  0  0  0
 13 22  2  0  0  0
 14 27  2  0  0  0
 15 28  2  0  0  0
 16 29  2  0  0  0
M  CHG  2  22   1  26  -1
M  END
> <rmsd>
0.561543226

$$$$
ZINC64683419


 29 31  0  0  0  0  0  0  0  0999 V2000
   -7.4693    2.8852   -0.2842 C   0  0  0  0  0
   -7.9939    4.0839   -0.7672 C   0  0  0  0  0
   -6.1142    2.7949    0.0340 C   0  0  0  0  0
   -5.8083    5.1021   -0.6141 C   0  0  0  0  0
   -7.1634    5.1924   -0.9323 C   0  0  0  0  0
   -5.2836    3.9033   -0.1310 C   0  0  0  0  0
   -3.3122   -2.2788    0.7878 C   0  0  0  0  0
   -4.5486   -2.1720    0.0268 C   0  0  0  0  0
   -2.1080   -2.1404    0.2078 C   0  0  0  0  0
   -4.5839   -1.9309   -1.2953 C   0  0  0  0  0
   -2.0521   -1.8815   -1.1978 C   0  0  0  0  0
   -1.0739   -1.6908   -2.0950 C   0  0  0  0  0
   -3.2955   -1.7708   -1.9839 C   0  0  0  0  0
   -3.2239    2.7018    0.6800 C   0  0  0  0  0
    2.4919   -0.2856   -1.3774 C   0  0  0  0  0
   -0.4252    1.4878   -0.5445 C   0  0  0  0  0
   -1.6357   -1.4534   -3.4739 C   0  0  0  0  0
   -7.7242    6.4739   -1.4487 C   0  0  0  0  0
    0.3964   -1.6914   -1.8742 C   0  0  0  0  0
   -1.7591    3.0329    0.8908 C   0  0  0  0  0
    0.9668   -0.2941   -1.5889 C   0  0  0  0  0
   -3.0850   -1.5386   -3.2213 N   0  0  0  0  0
   -3.9087    3.8111    0.1913 N   0  0  0  0  0
   -0.9537    1.8503    0.6915 N   0  0  0  0  0
    0.3074    0.3092   -0.4509 N   0  0  0  0  0
    3.1509   -1.1695   -1.9921 O   0  0  0  0  0
   -3.6829    1.5884    0.9150 O   0  0  0  0  0
    2.9049    0.6191   -0.5945 O   0  0  0  0  0
   -0.5844    2.1264   -1.5840 O   0  0  0  0  0
  1  3  1  0  0  0
  2  5  1  0  0  0
  4  6  1  0  0  0
  6 23  1  0  0  0
  7  8  1  0  0  0
  9 11  1  0  0  0
 10 13  1  0  0  0
 11 13  1  0  0  0
 14 23  1  0  0  0
 15 26  1  0  0  0
 16 24  1  0  0  0
 16 25  1  0  0  0
 17 12  1  0  0  0
 17 22  1  0  0  0
 18  5  1  0  0  0
 19 12  1  0  0  0
 19 21  1  0  0  0
 20 14  1  0  0  0
 20 24  1  0  0  0
 21 15  1  0  0  0
 21 25  1  0  0  0
  1  2  2  0  0  0
  3  6  2  0  0  0
  4  5  2  0  0  0
  7  9  2  0  0  0
  8 10  2  0  0  0
 11 12  2  0  0  0
 13 22  2  0  0  0
 14 27  2  0  0  0
 15 28  2  0  0  0
 16 29  2  0  0  0
M  CHG  2  22   1  26  -1
M  END
> <rmsd>
0.561456263

$$$$
ZINC35397372


 27 28  0  0  0  0  0  0  0  0999 V2000
   -3.5699   -2.5597    0.5591 C   0  0  0  0  0
   -2.9151   -2.3218   -1.7543 C   0  0  0  0  0
   -3.3978   -1.1887    0.7488 C   0  0  0  0  0
   -2.7430   -0.9507   -1.5646 C   0  0  0  0  0
    0.8677    0.4573   -0.6594 C   0  0  0  0  0
   -0.0608    2.4527   -1.5609 C   0  0  0  0  0
    1.8374    0.4947   -1.6552 C   0  0  0  0  0
   -0.1030    1.4512   -0.6043 C   0  0  0  0  0
   -3.3285   -3.1264   -0.6925 C   0  0  0  0  0
   -2.9843   -0.3842   -0.3130 C   0  0  0  0  0
    1.7926    1.5389   -2.5649 C   0  0  0  0  0
    2.8646   -0.5595   -1.7114 C   0  0  0  0  0
    1.4865    1.0963   -7.1316 C   0  0  0  0  0
    5.2230    4.5382   -3.5201 C   0  0  0  0  0
    1.7195    1.7786   -5.7911 C   0  0  0  0  0
    3.9225    3.7789   -3.7416 C   0  0  0  0  0
    2.5716    0.9416   -4.8446 C   0  0  0  0  0
    4.0206    2.3126   -3.3381 C   0  0  0  0  0
    0.8653    2.5224   -2.5432 N   0  0  0  0  0
   -1.1098    1.4400    0.4041 N   0  0  0  0  0
    2.7696    1.5832   -3.5744 N   0  0  0  0  0
    2.6287   -1.6167   -2.4071 O   0  0  0  0  0
    3.9632   -0.3879   -1.0627 O   0  0  0  0  0
   -3.6014    1.7332    1.0517 O   0  0  0  0  0
   -2.9451    2.0065   -1.3554 O   0  0  0  0  0
   -3.4925   -4.4433   -0.8743 F   0  0  0  0  0
   -2.7647    1.3555   -0.0721 S   0  0  0  0  0
  1  9  1  0  0  0
  2  4  1  0  0  0
  3 10  1  0  0  0
  5  8  1  0  0  0
  6 19  1  0  0  0
  7 11  1  0  0  0
  7 12  1  0  0  0
  8 20  1  0  0  0
  9 26  1  0  0  0
 11 21  1  0  0  0
 12 22  1  0  0  0
 13 15  1  0  0  0
 14 16  1  0  0  0
 15 17  1  0  0  0
 16 18  1  0  0  0
 17 21  1  0  0  0
 18 21  1  0  0  0
 27 10  1  0  0  0
 27 20  1  0  0  0
  1  3  2  0  0  0
  2  9  2  0  0  0
  4 10  2  0  0  0
  5  7  2  0  0  0
  6  8  2  0  0  0
 11 19  2  0  0  0
 12 23  2  0  0  0
 27 24  2  0  0  0
 27 25  2  0  0  0
M  CHG  1  22  -1
M  END
> <rmsd>
0.510439336

$$$$
ZINC35397372


 27 28  0  0  0  0  0  0  0  0999 V2000
   -3.2790   -2.5842    0.4528 C   0  0  0  0  0
   -2.4322   -2.2553   -1.7859 C   0  0  0  0  0
   -3.2327   -1.2076    0.6726 C   0  0  0  0  0
   -2.3859   -0.8786   -1.5661 C   0  0  0  0  0
    1.0040    0.7853   -0.3095 C   0  0  0  0  0
    0.0108    2.7196   -1.2731 C   0  0  0  0  0
    2.0563    0.9148   -1.2091 C   0  0  0  0  0
   -0.0421    1.7008   -0.3356 C   0  0  0  0  0
   -2.8786   -3.1081   -0.7764 C   0  0  0  0  0
   -2.7862   -0.3549   -0.3368 C   0  0  0  0  0
    2.0152    1.9687   -2.1077 C   0  0  0  0  0
    3.1634   -0.0564   -1.1795 C   0  0  0  0  0
    2.1712    1.5862   -6.6874 C   0  0  0  0  0
    5.2754    5.2387   -2.7031 C   0  0  0  0  0
    2.2245    2.2601   -5.3237 C   0  0  0  0  0
    4.0644    4.3861   -3.0543 C   0  0  0  0  0
    3.0473    1.4740   -4.3101 C   0  0  0  0  0
    4.2384    2.9247   -2.6592 C   0  0  0  0  0
    1.0161    2.8778   -2.1630 N   0  0  0  0  0
   -1.1345    1.5943    0.5733 N   0  0  0  0  0
    3.0756    2.1058   -3.0201 N   0  0  0  0  0
    3.0765   -1.1159   -1.9056 O   0  0  0  0  0
    4.1801    0.1871   -0.4283 O   0  0  0  0  0
   -3.6908    1.6841    0.9862 O   0  0  0  0  0
   -2.8365    2.0501   -1.3452 O   0  0  0  0  0
   -2.9218   -4.4303   -0.9870 F   0  0  0  0  0
   -2.7262    1.3919   -0.0577 S   0  0  0  0  0
  1  9  1  0  0  0
  2  4  1  0  0  0
  3 10  1  0  0  0
  5  8  1  0  0  0
  6 19  1  0  0  0
  7 11  1  0  0  0
  7 12  1  0  0  0
  8 20  1  0  0  0
  9 26  1  0  0  0
 11 21  1  0  0  0
 12 22  1  0  0  0
 13 15  1  0  0  0
 14 16  1  0  0  0
 15 17  1  0  0  0
 16 18  1  0  0  0
 17 21  1  0  0  0
 18 21  1  0  0  0
 27 10  1  0  0  0
 27 20  1  0  0  0
  1  3  2  0  0  0
  2  9  2  0  0  0
  4 10  2  0  0  0
  5  7  2  0  0  0
  6  8  2  0  0  0
 11 19  2  0  0  0
 12 23  2  0  0  0
 27 24  2  0  0  0
 27 25  2  0  0  0
M  CHG  1  22  -1
M  END
> <rmsd>
0.689593911

$$$$
ZINC64843337


 26 28  0  0  0  0  0  0  0  0999 V2000
   -2.9051   -2.3031   -1.7706 C   0  0  0  0  0
   -2.7412   -0.9344   -1.5573 C   0  0  0  0  0
   -3.3122   -3.1285   -0.7224 C   0  0  0  0  0
    0.8649    0.4559   -0.6606 C   0  0  0  0  0
   -0.0709    2.4426   -1.5738 C   0  0  0  0  0
    1.8312    0.4881   -1.6598 C   0  0  0  0  0
   -3.3915   -1.2166    0.7524 C   0  0  0  0  0
   -0.1079    1.4482   -0.6098 C   0  0  0  0  0
   -2.9842   -0.3912   -0.2958 C   0  0  0  0  0
   -3.5554   -2.5852    0.5391 C   0  0  0  0  0
    1.7813    1.5254   -2.5770 C   0  0  0  0  0
    2.8606   -0.5642   -1.7115 C   0  0  0  0  0
    4.0328    0.9859   -5.5014 C   0  0  0  0  0
    4.5898    2.2680   -4.9165 C   0  0  0  0  0
    2.6298    0.9270   -4.9080 C   0  0  0  0  0
    4.0515    2.2488   -3.4904 C   0  0  0  0  0
   -3.6501   -0.6265    2.1041 C   0  0  0  0  0
    0.8519    2.5071   -2.5596 N   0  0  0  0  0
    2.7567    1.5645   -3.5916 N   0  0  0  0  0
   -1.1115    1.4422    0.4019 N   0  0  0  0  0
    2.6248   -1.6270   -2.3986 O   0  0  0  0  0
    3.9608   -0.3855   -1.0675 O   0  0  0  0  0
   -3.6016    1.7348    1.0551 O   0  0  0  0  0
   -2.9536    1.9917   -1.3559 O   0  0  0  0  0
   -2.7676    1.3506   -0.0684 S   0  0  0  0  0
   -4.0528   -3.6433    1.8098 Cl  0  0  0  0  0
  1  2  1  0  0  0
  3 10  1  0  0  0
  4  8  1  0  0  0
  5 18  1  0  0  0
  6 11  1  0  0  0
  6 12  1  0  0  0
  7  9  1  0  0  0
  8 20  1  0  0  0
 10 26  1  0  0  0
 11 19  1  0  0  0
 12 21  1  0  0  0
 13 14  1  0  0  0
 13 15  1  0  0  0
 14 16  1  0  0  0
 15 19  1  0  0  0
 16 19  1  0  0  0
 17  7  1  0  0  0
 25  9  1  0  0  0
 25 20  1  0  0  0
  1  3  2  0  0  0
  2  9  2  0  0  0
  4  6  2  0  0  0
  5  8  2  0  0  0
  7 10  2  0  0  0
 11 18  2  0  0  0
 12 22  2  0  0  0
 25 23  2  0  0  0
 25 24  2  0  0  0
M  CHG  1  21  -1
M  END
> <rmsd>
0.517178237

$$$$
ZINC64843337


 26 28  0  0  0  0  0  0  0  0999 V2000
   -2.4220   -2.2340   -1.8031 C   0  0  0  0  0
   -2.3863   -0.8610   -1.5598 C   0  0  0  0  0
   -2.8583   -3.1077   -0.8070 C   0  0  0  0  0
    1.0011    0.7862   -0.3136 C   0  0  0  0  0
    0.0008    2.7115   -1.2879 C   0  0  0  0  0
    2.0502    0.9112   -1.2175 C   0  0  0  0  0
   -3.2234   -1.2353    0.6754 C   0  0  0  0  0
   -0.0471    1.6994   -0.3429 C   0  0  0  0  0
   -2.7869   -0.3616   -0.3205 C   0  0  0  0  0
   -3.2590   -2.6083    0.4322 C   0  0  0  0  0
    2.0041    1.9586   -2.1235 C   0  0  0  0  0
    3.1593   -0.0575   -1.1845 C   0  0  0  0  0
    4.5518    1.6486   -4.8301 C   0  0  0  0  0
    4.9500    2.9586   -4.1811 C   0  0  0  0  0
    3.1089    1.4707   -4.3714 C   0  0  0  0  0
    4.2852    2.8716   -2.8120 C   0  0  0  0  0
   -3.6514   -0.6921    2.0036 C   0  0  0  0  0
    1.0030    2.8652   -2.1821 N   0  0  0  0  0
    3.0630    2.0915   -3.0418 N   0  0  0  0  0
   -1.1363    1.5973    0.5703 N   0  0  0  0  0
    3.0722   -1.1223   -1.9026 O   0  0  0  0  0
    4.1778    0.1934   -0.4383 O   0  0  0  0  0
   -3.6914    1.6849    0.9906 O   0  0  0  0  0
   -2.8454    2.0358   -1.3460 O   0  0  0  0  0
   -2.7295    1.3871   -0.0542 S   0  0  0  0  0
   -3.7873   -3.7250    1.6387 Cl  0  0  0  0  0
  1  2  1  0  0  0
  3 10  1  0  0  0
  4  8  1  0  0  0
  5 18  1  0  0  0
  6 11  1  0  0  0
  6 12  1  0  0  0
  7  9  1  0  0  0
  8 20  1  0  0  0
 10 26  1  0  0  0
 11 19  1  0  0  0
 12 21  1  0  0  0
 13 14  1  0  0  0
 13 15  1  0  0  0
 14 16  1  0  0  0
 15 19  1  0  0  0
 16 19  1  0  0  0
 17  7  1  0  0  0
 25  9  1  0  0  0
 25 20  1  0  0  0
  1  3  2  0  0  0
  2  9  2  0  0  0
  4  6  2  0  0  0
  5  8  2  0  0  0
  7 10  2  0  0  0
 11 18  2  0  0  0
 12 22  2  0  0  0
 25 23  2  0  0  0
 25 24  2  0  0  0
M  CHG  1  21  -1
M  END
> <rmsd>
0.697356462

$$$$
ZINC71848051


 29 31  0  0  0  0  0  0  0  0999 V2000
   -4.5491   -3.1211   -0.8645 C   0  0  0  0  0
   -5.4402   -2.1526   -0.4023 C   0  0  0  0  0
   -3.2088   -3.0755   -0.4809 C   0  0  0  0  0
   -4.9909   -1.1384    0.4434 C   0  0  0  0  0
   -2.7596   -2.0613    0.3647 C   0  0  0  0  0
    2.5658    0.3917   -0.3997 C   0  0  0  0  0
    3.9672   -0.7969    1.1688 C   0  0  0  0  0
   -2.2427    3.0019   -0.0161 C   0  0  0  0  0
    1.7859    0.8647    0.6556 C   0  0  0  0  0
   -3.6505   -1.0927    0.8269 C   0  0  0  0  0
    2.0967    0.5071    1.9675 C   0  0  0  0  0
    3.6564   -0.4391   -0.1431 C   0  0  0  0  0
    3.1874   -0.3238    2.2241 C   0  0  0  0  0
   -3.6433    3.0414    0.1199 C   0  0  0  0  0
   -1.8722    1.8259    0.5891 C   0  0  0  0  0
    0.6536    1.7312    0.3556 C   0  0  0  0  0
    1.2549    1.0173    3.0963 C   0  0  0  0  0
   -4.5607    4.0920   -0.3529 C   0  0  0  0  0
   -3.1651    0.0013    1.7390 C   0  0  0  0  0
   -4.1296    1.9753    0.7608 N   0  0  0  0  0
   -3.0284    1.2547    1.0330 N   0  0  0  0  0
   -0.5936    1.2397    0.7671 N   0  0  0  0  0
    4.4492   -0.9226   -1.2175 N   0  0  0  0  0
    3.5248   -0.7023    3.5533 N   0  0  0  0  0
    4.1514   -0.5904   -2.3902 O   0  0  0  0  0
    4.3187    0.0168    4.2044 O   0  0  0  0  0
    0.7980    2.8011   -0.2493 O   0  0  0  0  0
    5.4257   -1.6687   -0.9647 O   0  0  0  0  0
    3.0181   -1.7435    4.0334 O   0  0  0  0  0
  1  2  1  0  0  0
  3  5  1  0  0  0
  4 10  1  0  0  0
  6  9  1  0  0  0
  7 12  1  0  0  0
  8 14  1  0  0  0
  9 16  1  0  0  0
 11 13  1  0  0  0
 12 23  1  0  0  0
 13 24  1  0  0  0
 15 21  1  0  0  0
 15 22  1  0  0  0
 16 22  1  0  0  0
 17 11  1  0  0  0
 18 14  1  0  0  0
 19 10  1  0  0  0
 19 21  1  0  0  0
 21 20  1  0  0  0
 23 25  1  0  0  0
 24 26  1  0  0  0
  1  3  2  0  0  0
  2  4  2  0  0  0
  5 10  2  0  0  0
  6 12  2  0  0  0
  7 13  2  0  0  0
  8 15  2  0  0  0
  9 11  2  0  0  0
 14 20  2  0  0  0
 16 27  2  0  0  0
 23 28  2  0  0  0
 24 29  2  0  0  0
M  CHG  4  23   1  24   1  25  -1  26  -1
M  END
> <rmsd>
0.617853343

$$$$
ZINC08715843


 28 31  0  0  0  0  0  0  0  0999 V2000
   -3.7366   -2.5113    0.9266 C   0  0  0  0  0
    1.6749    3.1761   -1.3120 C   0  0  0  0  0
   -3.3667   -1.1786    0.6281 C   0  0  0  0  0
   -3.9971   -3.4475   -0.0893 C   0  0  0  0  0
    2.4973    2.1141   -1.6881 C   0  0  0  0  0
   -3.1233   -0.2916   -3.5318 C   0  0  0  0  0
    0.5144    2.9332   -0.5772 C   0  0  0  0  0
   -2.8380    0.7340   -2.6124 C   0  0  0  0  0
    0.9984    0.5663   -0.5949 C   0  0  0  0  0
   -3.2500   -0.7552   -0.7131 C   0  0  0  0  0
   -3.5198   -1.7252   -1.6724 C   0  0  0  0  0
   -3.8784   -3.0179   -1.3938 C   0  0  0  0  0
    2.1590    0.8092   -1.3297 C   0  0  0  0  0
   -3.4663   -1.5285   -3.0254 C   0  0  0  0  0
    0.1761    1.6283   -0.2188 C   0  0  0  0  0
   -2.8980    0.5142   -1.2169 C   0  0  0  0  0
   -4.0705   -3.7081   -2.6874 C   0  0  0  0  0
    3.0271   -0.3111   -1.7273 C   0  0  0  0  0
   -5.2093   -2.6019   -5.6189 C   0  0  0  0  0
   -3.8512   -2.9098   -5.0864 C   0  0  0  0  0
   -3.8022   -2.7380   -3.6563 N   0  0  0  0  0
   -1.0207    1.3779    0.5383 N   0  0  0  0  0
    2.6926   -1.5064   -1.3836 O   0  0  0  0  0
   -4.3942   -4.8741   -2.8080 O   0  0  0  0  0
    4.0925   -0.0591   -2.4054 O   0  0  0  0  0
   -3.5285    1.8526    0.9132 O   0  0  0  0  0
   -2.3484    3.0500   -0.9504 O   0  0  0  0  0
   -2.5288    1.8492   -0.1464 S   0  0  0  0  0
  1  4  1  0  0  0
  2  5  1  0  0  0
  3 10  1  0  0  0
  6 14  1  0  0  0
  7 15  1  0  0  0
  8 16  1  0  0  0
  9 13  1  0  0  0
 10 11  1  0  0  0
 11 12  1  0  0  0
 12 17  1  0  0  0
 13 18  1  0  0  0
 14 21  1  0  0  0
 15 22  1  0  0  0
 17 21  1  0  0  0
 18 23  1  0  0  0
 19 20  1  0  0  0
 20 21  1  0  0  0
 28 16  1  0  0  0
 28 22  1  0  0  0
  1  3  2  0  0  0
  2  7  2  0  0  0
  4 12  2  0  0  0
  5 13  2  0  0  0
  6  8  2  0  0  0
  9 15  2  0  0  0
 10 16  2  0  0  0
 11 14  2  0  0  0
 17 24  2  0  0  0
 18 25  2  0  0  0
 28 26  2  0  0  0
 28 27  2  0  0  0
M  CHG  1  23  -1
M  END
> <rmsd>
0.460640222

$$$$
ZINC08715843


 28 31  0  0  0  0  0  0  0  0999 V2000
   -2.8052   -2.0394    3.1396 C   0  0  0  0  0
    0.8196    2.4383   -2.6443 C   0  0  0  0  0
   -2.7909   -0.9952    2.1848 C   0  0  0  0  0
   -2.9842   -3.3810    2.7599 C   0  0  0  0  0
    1.8012    1.4475   -2.6668 C   0  0  0  0  0
   -3.3280   -2.2665   -1.8459 C   0  0  0  0  0
   -0.1437    2.4428   -1.6354 C   0  0  0  0  0
   -3.1586   -0.8928   -1.5958 C   0  0  0  0  0
    0.8560    0.4658   -0.6718 C   0  0  0  0  0
   -2.9583   -1.2822    0.8132 C   0  0  0  0  0
   -3.1308   -2.6260    0.4997 C   0  0  0  0  0
   -3.1459   -3.6441    1.4164 C   0  0  0  0  0
    1.8194    0.4612   -1.6806 C   0  0  0  0  0
   -3.3094   -3.1217   -0.7631 C   0  0  0  0  0
   -0.1256    1.4565   -0.6493 C   0  0  0  0  0
   -2.9751   -0.3967   -0.2844 C   0  0  0  0  0
   -3.3527   -4.9036    0.6696 C   0  0  0  0  0
    2.8554   -0.5842   -1.7051 C   0  0  0  0  0
   -5.1036   -5.5578   -2.0909 C   0  0  0  0  0
   -3.6512   -5.3803   -1.8051 C   0  0  0  0  0
   -3.4464   -4.5167   -0.6696 N   0  0  0  0  0
   -1.1192    1.4609    0.3904 N   0  0  0  0  0
    2.8504   -1.4832   -0.7830 O   0  0  0  0  0
   -3.4177   -6.0065    1.1779 O   0  0  0  0  0
    3.7327   -0.5652   -2.6476 O   0  0  0  0  0
   -3.5935    1.7267    1.0701 O   0  0  0  0  0
   -2.9822    1.9837   -1.3505 O   0  0  0  0  0
   -2.7741    1.3286   -0.0667 S   0  0  0  0  0
  1  4  1  0  0  0
  2  5  1  0  0  0
  3 10  1  0  0  0
  6 14  1  0  0  0
  7 15  1  0  0  0
  8 16  1  0  0  0
  9 13  1  0  0  0
 10 11  1  0  0  0
 11 12  1  0  0  0
 12 17  1  0  0  0
 13 18  1  0  0  0
 14 21  1  0  0  0
 15 22  1  0  0  0
 17 21  1  0  0  0
 18 23  1  0  0  0
 19 20  1  0  0  0
 20 21  1  0  0  0
 28 16  1  0  0  0
 28 22  1  0  0  0
  1  3  2  0  0  0
  2  7  2  0  0  0
  4 12  2  0  0  0
  5 13  2  0  0  0
  6  8  2  0  0  0
  9 15  2  0  0  0
 10 16  2  0  0  0
 11 14  2  0  0  0
 17 24  2  0  0  0
 18 25  2  0  0  0
 28 26  2  0  0  0
 28 27  2  0  0  0
M  CHG  1  23  -1
M  END
> <rmsd>
0.528510332

$$$$
ZINC19923832


 28 31  0  0  0  0  0  0  0  0999 V2000
   -3.7350   -2.4915    0.9411 C   0  0  0  0  0
   -3.3989   -1.1463    0.6592 C   0  0  0  0  0
   -3.8673   -3.4465   -0.0820 C   0  0  0  0  0
    1.6158    1.7699   -1.7348 C   0  0  0  0  0
    1.6941   -0.4096   -0.6953 C   0  0  0  0  0
   -2.8403   -0.2837   -3.4754 C   0  0  0  0  0
    0.5015    2.0981   -0.9627 C   0  0  0  0  0
    0.5798   -0.0814    0.0768 C   0  0  0  0  0
   -2.6790    0.7610   -2.5475 C   0  0  0  0  0
   -3.1867   -0.7293   -0.6723 C   0  0  0  0  0
   -3.3316   -1.7180   -1.6393 C   0  0  0  0  0
   -3.6565   -3.0229   -1.3768 C   0  0  0  0  0
    2.2122    0.5160   -1.6012 C   0  0  0  0  0
   -3.1715   -1.5303   -2.9852 C   0  0  0  0  0
   -0.0165    1.1726   -0.0569 C   0  0  0  0  0
   -2.8481    0.5502   -1.1595 C   0  0  0  0  0
   -3.7076   -3.7316   -2.6737 C   0  0  0  0  0
    3.3886    0.1698   -2.4152 C   0  0  0  0  0
   -1.9394   -3.3259   -5.4706 C   0  0  0  0  0
   -3.3193   -2.9441   -5.0548 C   0  0  0  0  0
   -3.3998   -2.7585   -3.6279 N   0  0  0  0  0
   -1.1664    1.5102    0.7381 N   0  0  0  0  0
    3.9203   -0.9944   -2.2723 O   0  0  0  0  0
   -3.9693   -4.9116   -2.8073 O   0  0  0  0  0
    3.8476    1.0427   -3.2435 O   0  0  0  0  0
   -3.7151    1.8770    0.8932 O   0  0  0  0  0
   -2.4332    3.1099   -0.8777 O   0  0  0  0  0
   -2.6295    1.9090   -0.0776 S   0  0  0  0  0
  1  3  1  0  0  0
  2 10  1  0  0  0
  4 13  1  0  0  0
  5  8  1  0  0  0
  6 14  1  0  0  0
  7 15  1  0  0  0
  9 16  1  0  0  0
 10 11  1  0  0  0
 11 12  1  0  0  0
 12 17  1  0  0  0
 13 18  1  0  0  0
 14 21  1  0  0  0
 15 22  1  0  0  0
 17 21  1  0  0  0
 18 23  1  0  0  0
 19 20  1  0  0  0
 20 21  1  0  0  0
 28 16  1  0  0  0
 28 22  1  0  0  0
  1  2  2  0  0  0
  3 12  2  0  0  0
  4  7  2  0  0  0
  5 13  2  0  0  0
  6  9  2  0  0  0
  8 15  2  0  0  0
 10 16  2  0  0  0
 11 14  2  0  0  0
 17 24  2  0  0  0
 18 25  2  0  0  0
 28 26  2  0  0  0
 28 27  2  0  0  0
M  CHG  1  23  -1
M  END
> <rmsd>
0.492966413

$$$$
ZINC58366766


 26 28  0  0  0  0  0  0  0  0999 V2000
    0.8686    2.5239   -2.5708 C   0  0  0  0  0
   -0.1072    2.5007   -1.5744 C   0  0  0  0  0
   -3.5400   -2.5662    0.5402 C   0  0  0  0  0
   -2.9058   -2.3079   -1.7767 C   0  0  0  0  0
   -3.3762   -1.1953    0.7379 C   0  0  0  0  0
   -2.7421   -0.9369   -1.5790 C   0  0  0  0  0
    0.8582    0.4762   -0.6762 C   0  0  0  0  0
    1.8340    0.4995   -1.6727 C   0  0  0  0  0
    1.8392    1.5232   -2.6199 C   0  0  0  0  0
   -0.1125    1.4768   -0.6270 C   0  0  0  0  0
   -3.3047   -3.1227   -0.7171 C   0  0  0  0  0
   -2.9773   -0.3805   -0.3217 C   0  0  0  0  0
    2.8487   -0.5706   -1.7020 C   0  0  0  0  0
    2.4508    1.5208   -5.0380 C   0  0  0  0  0
    4.2153    1.7967   -3.3277 C   0  0  0  0  0
    2.6479    2.8873   -5.6845 C   0  0  0  0  0
    4.6233    3.1958   -3.7847 C   0  0  0  0  0
    2.7943    1.5640   -3.6121 N   0  0  0  0  0
   -1.1116    1.4534    0.3925 N   0  0  0  0  0
    2.6040   -1.6339   -2.3833 O   0  0  0  0  0
    3.9417   -0.4021   -1.0450 O   0  0  0  0  0
   -3.5972    1.7226    1.0634 O   0  0  0  0  0
   -2.9653    2.0174   -1.3477 O   0  0  0  0  0
   -3.4607   -4.4395   -0.9067 F   0  0  0  0  0
    4.3848    3.4218   -5.5751 S   0  0  0  0  0
   -2.7682    1.3589   -0.0706 S   0  0  0  0  0
  1  9  1  0  0  0
  2 10  1  0  0  0
  3  5  1  0  0  0
  4 11  1  0  0  0
  6 12  1  0  0  0
  7  8  1  0  0  0
  8 13  1  0  0  0
  9 18  1  0  0  0
 10 19  1  0  0  0
 11 24  1  0  0  0
 13 20  1  0  0  0
 14 16  1  0  0  0
 14 18  1  0  0  0
 15 17  1  0  0  0
 15 18  1  0  0  0
 16 25  1  0  0  0
 17 25  1  0  0  0
 26 12  1  0  0  0
 26 19  1  0  0  0
  1  2  2  0  0  0
  3 11  2  0  0  0
  4  6  2  0  0  0
  5 12  2  0  0  0
  7 10  2  0  0  0
  8  9  2  0  0  0
 13 21  2  0  0  0
 26 22  2  0  0  0
 26 23  2  0  0  0
M  CHG  1  20  -1
M  END
> <rmsd>
0.526382267

$$$$
ZINC58366766


 26 28  0  0  0  0  0  0  0  0999 V2000
    1.0208    2.8834   -2.1900 C   0  0  0  0  0
   -0.0386    2.7665   -1.2903 C   0  0  0  0  0
   -3.2446   -2.5886    0.4341 C   0  0  0  0  0
   -2.4200   -2.2390   -1.8097 C   0  0  0  0  0
   -3.2081   -1.2131    0.6619 C   0  0  0  0  0
   -2.3836   -0.8633   -1.5819 C   0  0  0  0  0
    0.9951    0.8060   -0.3282 C   0  0  0  0  0
    2.0544    0.9231   -1.2281 C   0  0  0  0  0
    2.0673    1.9617   -2.1589 C   0  0  0  0  0
   -0.0515    1.7278   -0.3593 C   0  0  0  0  0
   -2.8505   -3.1017   -0.8017 C   0  0  0  0  0
   -2.7776   -0.3503   -0.3461 C   0  0  0  0  0
    3.1484   -0.0649   -1.1738 C   0  0  0  0  0
    2.8994    2.0515   -4.5086 C   0  0  0  0  0
    4.4701    2.4307   -2.6367 C   0  0  0  0  0
    3.0479    3.4410   -5.1181 C   0  0  0  0  0
    4.8078    3.8654   -3.0374 C   0  0  0  0  0
    3.1043    2.0945   -3.0563 N   0  0  0  0  0
   -1.1361    1.6083    0.5613 N   0  0  0  0  0
    3.0523   -1.1309   -1.8872 O   0  0  0  0  0
    4.1589    0.1752   -0.4150 O   0  0  0  0  0
   -3.6868    1.6725    0.9982 O   0  0  0  0  0
   -2.8586    2.0601   -1.3391 O   0  0  0  0  0
   -2.8842   -4.4228   -1.0200 F   0  0  0  0  0
    4.7197    4.1057   -4.8396 S   0  0  0  0  0
   -2.7300    1.3951   -0.0567 S   0  0  0  0  0
  1  9  1  0  0  0
  2 10  1  0  0  0
  3  5  1  0  0  0
  4 11  1  0  0  0
  6 12  1  0  0  0
  7  8  1  0  0  0
  8 13  1  0  0  0
  9 18  1  0  0  0
 10 19  1  0  0  0
 11 24  1  0  0  0
 13 20  1  0  0  0
 14 16  1  0  0  0
 14 18  1  0  0  0
 15 17  1  0  0  0
 15 18  1  0  0  0
 16 25  1  0  0  0
 17 25  1  0  0  0
 26 12  1  0  0  0
 26 19  1  0  0  0
  1  2  2  0  0  0
  3 11  2  0  0  0
  4  6  2  0  0  0
  5 12  2  0  0  0
  7 10  2  0  0  0
  8  9  2  0  0  0
 13 21  2  0  0  0
 26 22  2  0  0  0
 26 23  2  0  0  0
M  CHG  1  20  -1
M  END
> <rmsd>
0.70733875

$$$$
ZINC33253660


 26 27  0  0  0  0  0  0  0  0999 V2000
   -2.8960   -2.2880   -1.7931 C   0  0  0  0  0
   -0.1168    2.4914   -1.5867 C   0  0  0  0  0
    0.8556    2.5091   -2.5864 C   0  0  0  0  0
   -2.7401   -0.9197   -1.5716 C   0  0  0  0  0
   -3.2890   -3.1234   -0.7475 C   0  0  0  0  0
    0.8550    0.4752   -0.6769 C   0  0  0  0  0
    1.8275    0.4929   -1.6767 C   0  0  0  0  0
   -3.3700   -1.2223    0.7411 C   0  0  0  0  0
   -0.1172    1.4745   -0.6319 C   0  0  0  0  0
    1.8279    1.5099   -2.6315 C   0  0  0  0  0
   -2.9771   -0.3869   -0.3045 C   0  0  0  0  0
   -3.5260   -2.5906    0.5195 C   0  0  0  0  0
    2.8447   -0.5750   -1.7014 C   0  0  0  0  0
   -3.6220   -0.6434    2.0988 C   0  0  0  0  0
    3.8834    3.7154   -3.6811 C   0  0  0  0  0
    1.8761    1.7506   -5.8835 C   0  0  0  0  0
    4.0506    2.2523   -3.4490 C   0  0  0  0  0
    2.5722    0.8626   -4.9090 C   0  0  0  0  0
   -1.1133    1.4563    0.3908 N   0  0  0  0  0
    2.8033    1.5451   -3.6527 N   0  0  0  0  0
    2.6004   -1.6437   -2.3744 O   0  0  0  0  0
    3.9393   -0.3993   -1.0488 O   0  0  0  0  0
   -3.5975    1.7250    1.0670 O   0  0  0  0  0
   -2.9733    2.0036   -1.3480 O   0  0  0  0  0
   -2.7710    1.3549   -0.0668 S   0  0  0  0  0
   -4.0056   -3.6609    1.7869 Cl  0  0  0  0  0
  1  5  1  0  0  0
  2  9  1  0  0  0
  3 10  1  0  0  0
  4 11  1  0  0  0
  6  7  1  0  0  0
  7 13  1  0  0  0
  8 12  1  0  0  0
  9 19  1  0  0  0
 10 20  1  0  0  0
 12 26  1  0  0  0
 13 21  1  0  0  0
 14  8  1  0  0  0
 15 17  1  0  0  0
 16 18  1  0  0  0
 17 20  1  0  0  0
 18 20  1  0  0  0
 25 11  1  0  0  0
 25 19  1  0  0  0
  1  4  2  0  0  0
  2  3  2  0  0  0
  5 12  2  0  0  0
  6  9  2  0  0  0
  7 10  2  0  0  0
  8 11  2  0  0  0
 13 22  2  0  0  0
 25 23  2  0  0  0
 25 24  2  0  0  0
M  CHG  1  21  -1
M  END
> <rmsd>
0.532862842

$$$$
ZINC33253660


 26 27  0  0  0  0  0  0  0  0999 V2000
   -2.4098   -2.2163   -1.8274 C   0  0  0  0  0
   -0.0483    2.7595   -1.3046 C   0  0  0  0  0
    1.0077    2.8720   -2.2087 C   0  0  0  0  0
   -2.3838   -0.8446   -1.5758 C   0  0  0  0  0
   -2.8302   -3.0998   -0.8332 C   0  0  0  0  0
    0.9919    0.8077   -0.3323 C   0  0  0  0  0
    2.0480    0.9201   -1.2366 C   0  0  0  0  0
   -3.1983   -1.2399    0.6641 C   0  0  0  0  0
   -0.0563    1.7274   -0.3663 C   0  0  0  0  0
    2.0559    1.9523   -2.1748 C   0  0  0  0  0
   -2.7780   -0.3564   -0.3300 C   0  0  0  0  0
   -3.2244   -2.6117    0.4125 C   0  0  0  0  0
    3.1444   -0.0648   -1.1790 C   0  0  0  0  0
   -3.6194   -0.7087    1.9993 C   0  0  0  0  0
    4.0186    4.3308   -3.0011 C   0  0  0  0  0
    2.3847    2.2590   -5.4049 C   0  0  0  0  0
    4.2789    2.8808   -2.7720 C   0  0  0  0  0
    3.0560    1.4090   -4.3804 C   0  0  0  0  0
   -1.1379    1.6121    0.5585 N   0  0  0  0  0
    3.1156    2.0829   -3.0999 N   0  0  0  0  0
    3.0485   -1.1361   -1.8846 O   0  0  0  0  0
    4.1568    0.1827   -0.4248 O   0  0  0  0  0
   -3.6873    1.6739    1.0029 O   0  0  0  0  0
   -2.8671    2.0469   -1.3398 O   0  0  0  0  0
   -2.7331    1.3912   -0.0531 S   0  0  0  0  0
   -3.7327   -3.7403    1.6165 Cl  0  0  0  0  0
  1  5  1  0  0  0
  2  9  1  0  0  0
  3 10  1  0  0  0
  4 11  1  0  0  0
  6  7  1  0  0  0
  7 13  1  0  0  0
  8 12  1  0  0  0
  9 19  1  0  0  0
 10 20  1  0  0  0
 12 26  1  0  0  0
 13 21  1  0  0  0
 14  8  1  0  0  0
 15 17  1  0  0  0
 16 18  1  0  0  0
 17 20  1  0  0  0
 18 20  1  0  0  0
 25 11  1  0  0  0
 25 19  1  0  0  0
  1  4  2  0  0  0
  2  3  2  0  0  0
  5 12  2  0  0  0
  6  9  2  0  0  0
  7 10  2  0  0  0
  8 11  2  0  0  0
 13 22  2  0  0  0
 25 23  2  0  0  0
 25 24  2  0  0  0
M  CHG  1  21  -1
M  END
> <rmsd>
0.715610981

$$$$
ZINC04215237


 26 28  0  0  0  0  0  0  0  0999 V2000
   -4.2087   -1.2860    0.2903 C   0  0  0  0  0
   -3.1737   -0.4824   -0.1396 C   0  0  0  0  0
   -2.5632   -2.3528   -1.1084 C   0  0  0  0  0
    3.2527    0.4287   -0.1202 C   0  0  0  0  0
    3.8026   -0.0287    1.0298 C   0  0  0  0  0
    1.2398    1.7242   -0.9633 C   0  0  0  0  0
   -3.0398    0.9558    0.2170 C   0  0  0  0  0
    3.7892   -0.0507   -1.4640 C   0  0  0  0  0
   -1.8631    1.7310   -0.3146 C   0  0  0  0  0
    3.2194    0.2580    2.4116 C   0  0  0  0  0
    0.4724    2.3463    0.2382 C   0  0  0  0  0
    1.7200    1.9726    1.0679 C   0  0  0  0  0
    5.0385   -0.8920    1.0973 C   0  0  0  0  0
   -4.6049    3.4424    2.0332 C   0  0  0  0  0
   -2.2289   -1.0925   -0.9415 N   0  0  0  0  0
   -3.9165    1.5373    0.9790 N   0  0  0  0  0
    2.1797    1.2611   -0.1110 N   0  0  0  0  0
   -1.8485   -3.2438   -1.8455 N   0  0  0  0  0
   -0.7926    1.6751    0.5337 N   0  0  0  0  0
    3.2282   -1.0830   -1.9155 O   0  0  0  0  0
    1.0589    1.6084   -2.1528 O   0  0  0  0  0
    4.7199    0.6512   -1.9388 O   0  0  0  0  0
   -1.9828    2.2945   -1.3905 O   0  0  0  0  0
   -3.6028    2.8860    1.1963 O   0  0  0  0  0
   -4.0019   -2.8715   -0.3300 S   0  0  0  0  0
    1.4702    0.7787    2.4016 S   0  0  0  0  0
  1 25  1  0  0  0
  2  7  1  0  0  0
  2 15  1  0  0  0
  3 18  1  0  0  0
  3 25  1  0  0  0
  4  8  1  0  0  0
  4 17  1  0  0  0
  6 17  1  0  0  0
  7  9  1  0  0  0
  8 20  1  0  0  0
  9 19  1  0  0  0
 10  5  1  0  0  0
 10 26  1  0  0  0
 11  6  1  0  0  0
 11 12  1  0  0  0
 11 19  1  0  0  0
 12 17  1  0  0  0
 12 26  1  0  0  0
 13  5  1  0  0  0
 14 24  1  0  0  0
 16 24  1  0  0  0
  1  2  2  0  0  0
  3 15  2  0  0  0
  4  5  2  0  0  0
  6 21  2  0  0  0
  7 16  2  0  0  0
  8 22  2  0  0  0
  9 23  2  0  0  0
M  CHG  1  20  -1
M  END
> <rmsd>
0.402820975

$$$$
ZINC04215237


 26 28  0  0  0  0  0  0  0  0999 V2000
   -4.4874   -1.1672    0.4473 C   0  0  0  0  0
   -3.4007   -0.4793   -0.0507 C   0  0  0  0  0
   -2.9980   -2.4342   -0.9595 C   0  0  0  0  0
    3.0779   -0.1613   -0.2851 C   0  0  0  0  0
    3.6267   -0.6220    0.8641 C   0  0  0  0  0
    1.1601    1.2794   -1.1143 C   0  0  0  0  0
   -3.1245    0.9533    0.2402 C   0  0  0  0  0
    3.5185   -0.7399   -1.6247 C   0  0  0  0  0
   -1.9031    1.5960   -0.3628 C   0  0  0  0  0
    3.1236   -0.2293    2.2514 C   0  0  0  0  0
    0.4973    2.0157    0.0849 C   0  0  0  0  0
    1.7361    1.5618    0.8875 C   0  0  0  0  0
    4.7813   -1.5917    0.9266 C   0  0  0  0  0
   -4.3900    3.6420    2.0012 C   0  0  0  0  0
   -2.5454   -1.2043   -0.8572 N   0  0  0  0  0
   -3.9161    1.6420    1.0059 N   0  0  0  0  0
    2.0855    0.7657   -0.2752 N   0  0  0  0  0
   -2.3946   -3.4150   -1.6819 N   0  0  0  0  0
   -0.8112    1.4753    0.4508 N   0  0  0  0  0
    2.8502   -1.7333   -2.0132 O   0  0  0  0  0
    0.9254    1.1344   -2.2911 O   0  0  0  0  0
    4.4904   -0.1454   -2.1596 O   0  0  0  0  0
   -2.0115    2.1257   -1.4570 O   0  0  0  0  0
   -3.4741    2.9638    1.1555 O   0  0  0  0  0
   -4.4478   -2.7880   -0.1121 S   0  0  0  0  0
    1.4293    0.4488    2.2779 S   0  0  0  0  0
  1 25  1  0  0  0
  2  7  1  0  0  0
  2 15  1  0  0  0
  3 18  1  0  0  0
  3 25  1  0  0  0
  4  8  1  0  0  0
  4 17  1  0  0  0
  6 17  1  0  0  0
  7  9  1  0  0  0
  8 20  1  0  0  0
  9 19  1  0  0  0
 10  5  1  0  0  0
 10 26  1  0  0  0
 11  6  1  0  0  0
 11 12  1  0  0  0
 11 19  1  0  0  0
 12 17  1  0  0  0
 12 26  1  0  0  0
 13  5  1  0  0  0
 14 24  1  0  0  0
 16 24  1  0  0  0
  1  2  2  0  0  0
  3 15  2  0  0  0
  4  5  2  0  0  0
  6 21  2  0  0  0
  7 16  2  0  0  0
  8 22  2  0  0  0
  9 23  2  0  0  0
M  CHG  1  20  -1
M  END
> <rmsd>
0.102891788

$$$$
ZINC04215237


 26 28  0  0  0  0  0  0  0  0999 V2000
   -2.2554   -1.1554   -0.9588 C   0  0  0  0  0
   -3.1564   -0.4830   -0.1600 C   0  0  0  0  0
   -4.1209   -2.4527   -0.1590 C   0  0  0  0  0
    3.2683    0.4385   -0.1122 C   0  0  0  0  0
    3.8149   -0.0255    1.0367 C   0  0  0  0  0
    1.2562    1.7361   -0.9540 C   0  0  0  0  0
   -3.0262    0.9530    0.2064 C   0  0  0  0  0
    3.8102   -0.0314   -1.4572 C   0  0  0  0  0
   -1.8489    1.7336   -0.3161 C   0  0  0  0  0
    3.2265    0.2514    2.4183 C   0  0  0  0  0
    0.4836    2.3491    0.2488 C   0  0  0  0  0
    1.7289    1.9721    1.0805 C   0  0  0  0  0
    5.0520   -0.8871    1.1030 C   0  0  0  0  0
   -4.6018    3.4254    2.0331 C   0  0  0  0  0
   -4.2270   -1.2251    0.2993 N   0  0  0  0  0
   -3.9065    1.5282    0.9691 N   0  0  0  0  0
    2.1939    1.2690   -0.1014 N   0  0  0  0  0
   -5.0101   -3.4473    0.1018 N   0  0  0  0  0
   -0.7813    1.6740    0.5356 N   0  0  0  0  0
    3.2526   -1.0617   -1.9173 O   0  0  0  0  0
    1.0796    1.6277   -2.1448 O   0  0  0  0  0
    4.7414    0.6751   -1.9242 O   0  0  0  0  0
   -1.9658    2.3038   -1.3888 O   0  0  0  0  0
   -3.5958    2.8760    1.1962 O   0  0  0  0  0
   -2.7580   -2.7841   -1.1478 S   0  0  0  0  0
    1.4764    0.7693    2.4055 S   0  0  0  0  0
  1 25  1  0  0  0
  2  7  1  0  0  0
  2 15  1  0  0  0
  3 18  1  0  0  0
  3 25  1  0  0  0
  4  8  1  0  0  0
  4 17  1  0  0  0
  6 17  1  0  0  0
  7  9  1  0  0  0
  8 20  1  0  0  0
  9 19  1  0  0  0
 10  5  1  0  0  0
 10 26  1  0  0  0
 11  6  1  0  0  0
 11 12  1  0  0  0
 11 19  1  0  0  0
 12 17  1  0  0  0
 12 26  1  0  0  0
 13  5  1  0  0  0
 14 24  1  0  0  0
 16 24  1  0  0  0
  1  2  2  0  0  0
  3 15  2  0  0  0
  4  5  2  0  0  0
  6 21  2  0  0  0
  7 16  2  0  0  0
  8 22  2  0  0  0
  9 23  2  0  0  0
M  CHG  1  20  -1
M  END
> <rmsd>
0.360020757

$$$$
ZINC04215237


 26 28  0  0  0  0  0  0  0  0999 V2000
   -2.5780   -1.2651   -0.8725 C   0  0  0  0  0
   -3.3840   -0.4827   -0.0722 C   0  0  0  0  0
   -4.5210   -2.3545    0.0442 C   0  0  0  0  0
    3.0948   -0.1515   -0.2825 C   0  0  0  0  0
    3.6405   -0.6188    0.8655 C   0  0  0  0  0
    1.1772    1.2912   -1.1087 C   0  0  0  0  0
   -3.1113    0.9484    0.2290 C   0  0  0  0  0
    3.5410   -0.7206   -1.6244 C   0  0  0  0  0
   -1.8891    1.5973   -0.3657 C   0  0  0  0  0
    3.1320   -0.2361    2.2536 C   0  0  0  0  0
    0.5090    2.0183    0.0930 C   0  0  0  0  0
    1.7459    1.5614    0.8967 C   0  0  0  0  0
    4.7967   -1.5867    0.9256 C   0  0  0  0  0
   -4.3878    3.6232    2.0032 C   0  0  0  0  0
   -4.4989   -1.1055    0.4540 N   0  0  0  0  0
   -3.9068    1.6307    0.9965 N   0  0  0  0  0
    2.1007    0.7736   -0.2699 N   0  0  0  0  0
   -5.4857   -3.2528    0.3767 N   0  0  0  0  0
   -0.7998    1.4732    0.4509 N   0  0  0  0  0
    2.8759   -1.7126   -2.0216 O   0  0  0  0  0
    0.9467    1.1534   -2.2873 O   0  0  0  0  0
    4.5137   -0.1208   -2.1521 O   0  0  0  0  0
   -1.9947    2.1340   -1.4567 O   0  0  0  0  0
   -3.4677    2.9523    1.1562 O   0  0  0  0  0
   -3.2319   -2.8471   -0.9758 S   0  0  0  0  0
    1.4364    0.4388    2.2788 S   0  0  0  0  0
  1 25  1  0  0  0
  2  7  1  0  0  0
  2 15  1  0  0  0
  3 18  1  0  0  0
  3 25  1  0  0  0
  4  8  1  0  0  0
  4 17  1  0  0  0
  6 17  1  0  0  0
  7  9  1  0  0  0
  8 20  1  0  0  0
  9 19  1  0  0  0
 10  5  1  0  0  0
 10 26  1  0  0  0
 11  6  1  0  0  0
 11 12  1  0  0  0
 11 19  1  0  0  0
 12 17  1  0  0  0
 12 26  1  0  0  0
 13  5  1  0  0  0
 14 24  1  0  0  0
 16 24  1  0  0  0
  1  2  2  0  0  0
  3 15  2  0  0  0
  4  5  2  0  0  0
  6 21  2  0  0  0
  7 16  2  0  0  0
  8 22  2  0  0  0
  9 23  2  0  0  0
M  CHG  1  20  -1
M  END
> <rmsd>
0.0604227819

$$$$
ZINC11616979


 26 28  0  0  0  0  0  0  0  0999 V2000
   -4.6628   -1.0747    0.5468 C   0  0  0  0  0
   -3.5383   -0.4739    0.0208 C   0  0  0  0  0
   -3.2564   -2.4846   -0.8085 C   0  0  0  0  0
    3.4456    0.1573   -0.4170 C   0  0  0  0  0
    4.3677    0.3215    0.5609 C   0  0  0  0  0
    1.1393    0.9534   -1.0989 C   0  0  0  0  0
   -3.1757    0.9501    0.2532 C   0  0  0  0  0
    3.8143   -0.5756   -1.7012 C   0  0  0  0  0
   -1.9199    1.4935   -0.3759 C   0  0  0  0  0
    4.1256    1.1643    1.8130 C   0  0  0  0  0
    0.5027    1.7859    0.0531 C   0  0  0  0  0
    1.6408    1.2104    0.9246 C   0  0  0  0  0
    5.7406   -0.3054    0.5503 C   0  0  0  0  0
   -4.2725    3.7788    1.9048 C   0  0  0  0  0
   -2.7304   -1.2809   -0.7563 N   0  0  0  0  0
   -3.9224    1.7154    0.9909 N   0  0  0  0  0
    2.2086    0.7084   -0.3123 N   0  0  0  0  0
   -2.7150   -3.5282   -1.4910 N   0  0  0  0  0
   -0.8334    1.3408    0.4408 N   0  0  0  0  0
    4.7530   -0.0505   -2.3552 O   0  0  0  0  0
    0.8612    0.6842   -2.2438 O   0  0  0  0  0
    3.1300   -1.6065   -1.9332 O   0  0  0  0  0
   -1.9996    1.9841   -1.4906 O   0  0  0  0  0
   -3.4015    3.0132    1.0867 O   0  0  0  0  0
   -4.7222   -2.7161    0.0534 S   0  0  0  0  0
    2.7922    2.4000    1.6439 S   0  0  0  0  0
  1 25  1  0  0  0
  2  7  1  0  0  0
  2 15  1  0  0  0
  3 18  1  0  0  0
  3 25  1  0  0  0
  4  8  1  0  0  0
  4 17  1  0  0  0
  6 17  1  0  0  0
  7  9  1  0  0  0
  8 20  1  0  0  0
  9 19  1  0  0  0
 10  5  1  0  0  0
 10 26  1  0  0  0
 11  6  1  0  0  0
 11 12  1  0  0  0
 11 19  1  0  0  0
 12 17  1  0  0  0
 12 26  1  0  0  0
 13  5  1  0  0  0
 14 24  1  0  0  0
 16 24  1  0  0  0
  1  2  2  0  0  0
  3 15  2  0  0  0
  4  5  2  0  0  0
  6 21  2  0  0  0
  7 16  2  0  0  0
  8 22  2  0  0  0
  9 23  2  0  0  0
M  CHG  1  20  -1
M  END
> <rmsd>
0.166347593

$$$$
ZINC11616979


 26 28  0  0  0  0  0  0  0  0999 V2000
   -2.7676   -1.3401   -0.7693 C   0  0  0  0  0
   -3.5226   -0.4791   -0.0006 C   0  0  0  0  0
   -4.7692   -2.2730    0.1930 C   0  0  0  0  0
    3.4615    0.1691   -0.4121 C   0  0  0  0  0
    4.3800    0.3292    0.5698 C   0  0  0  0  0
    1.1556    0.9648   -1.0965 C   0  0  0  0  0
   -3.1636    0.9442    0.2418 C   0  0  0  0  0
    3.8357   -0.5551   -1.6996 C   0  0  0  0  0
   -1.9069    1.4941   -0.3800 C   0  0  0  0  0
    4.1322    1.1638    1.8263 C   0  0  0  0  0
    0.5137    1.7887    0.0586 C   0  0  0  0  0
    1.6501    1.2103    0.9302 C   0  0  0  0  0
    5.7543   -0.2948    0.5597 C   0  0  0  0  0
   -4.2715    3.7604    1.9072 C   0  0  0  0  0
   -4.6709   -1.0121    0.5517 N   0  0  0  0  0
   -3.9142    1.7035    0.9818 N   0  0  0  0  0
    2.2229    0.7170   -0.3080 N   0  0  0  0  0
   -5.7847   -3.0977    0.5629 N   0  0  0  0  0
   -0.8228    1.3385    0.4393 N   0  0  0  0  0
    4.7754   -0.0240   -2.3473 O   0  0  0  0  0
    0.8818    0.7020   -2.2439 O   0  0  0  0  0
    3.1543   -1.5859   -1.9401 O   0  0  0  0  0
   -1.9841    1.9914   -1.4919 O   0  0  0  0  0
   -3.3963    3.0017    1.0872 O   0  0  0  0  0
   -3.5154   -2.8830   -0.8074 S   0  0  0  0  0
    2.7968    2.3978    1.6605 S   0  0  0  0  0
  1 25  1  0  0  0
  2  7  1  0  0  0
  2 15  1  0  0  0
  3 18  1  0  0  0
  3 25  1  0  0  0
  4  8  1  0  0  0
  4 17  1  0  0  0
  6 17  1  0  0  0
  7  9  1  0  0  0
  8 20  1  0  0  0
  9 19  1  0  0  0
 10  5  1  0  0  0
 10 26  1  0  0  0
 11  6  1  0  0  0
 11 12  1  0  0  0
 11 19  1  0  0  0
 12 17  1  0  0  0
 12 26  1  0  0  0
 13  5  1  0  0  0
 14 24  1  0  0  0
 16 24  1  0  0  0
  1  2  2  0  0  0
  3 15  2  0  0  0
  4  5  2  0  0  0
  6 21  2  0  0  0
  7 16  2  0  0  0
  8 22  2  0  0  0
  9 23  2  0  0  0
M  CHG  1  20  -1
M  END
> <rmsd>
0.192818716

$$$$
ZINC35397676


 26 27  0  0  0  0  0  0  0  0999 V2000
   -2.9020   -2.3019   -1.7759 C   0  0  0  0  0
   -2.7386   -0.9334   -1.5610 C   0  0  0  0  0
   -3.3101   -3.1284   -0.7289 C   0  0  0  0  0
    0.8658    0.4537   -0.6668 C   0  0  0  0  0
   -0.0944    2.4119   -1.6154 C   0  0  0  0  0
    1.8230    0.4713   -1.6752 C   0  0  0  0  0
   -3.3912   -1.2180    0.7478 C   0  0  0  0  0
   -0.1145    1.4389   -0.6292 C   0  0  0  0  0
   -2.9832   -0.3915   -0.2992 C   0  0  0  0  0
   -3.5546   -2.5865    0.5328 C   0  0  0  0  0
    1.7563    1.4875   -2.6148 C   0  0  0  0  0
    2.8605   -0.5735   -1.7129 C   0  0  0  0  0
   -3.6513   -0.6295    2.0997 C   0  0  0  0  0
    1.7831    1.6910   -5.8689 C   0  0  0  0  0
    3.7669    3.6990   -3.7339 C   0  0  0  0  0
    2.4873    0.8151   -4.8893 C   0  0  0  0  0
    3.9614    2.2456   -3.4650 C   0  0  0  0  0
    0.8191    2.4618   -2.6108 N   0  0  0  0  0
   -1.1180    1.4475    0.4009 N   0  0  0  0  0
    2.7287    1.5120   -3.6458 N   0  0  0  0  0
    2.6274   -1.6532   -2.3741 O   0  0  0  0  0
    3.9650   -0.3717   -1.0832 O   0  0  0  0  0
   -3.5963    1.7315    1.0583 O   0  0  0  0  0
   -2.9598    1.9932   -1.3554 O   0  0  0  0  0
   -2.7695    1.3313   -0.0723 S   0  0  0  0  0
   -4.0530   -3.6460    1.8020 Cl  0  0  0  0  0
  1  3  1  0  0  0
  2  9  1  0  0  0
  4  8  1  0  0  0
  5 18  1  0  0  0
  6 11  1  0  0  0
  6 12  1  0  0  0
  7 10  1  0  0  0
  8 19  1  0  0  0
 10 26  1  0  0  0
 11 20  1  0  0  0
 12 21  1  0  0  0
 13  7  1  0  0  0
 14 16  1  0  0  0
 15 17  1  0  0  0
 16 20  1  0  0  0
 17 20  1  0  0  0
 25  9  1  0  0  0
 25 19  1  0  0  0
  1  2  2  0  0  0
  3 10  2  0  0  0
  4  6  2  0  0  0
  5  8  2  0  0  0
  7  9  2  0  0  0
 11 18  2  0  0  0
 12 22  2  0  0  0
 25 23  2  0  0  0
 25 24  2  0  0  0
M  CHG  1  21  -1
M  END
> <rmsd>
0.520231009

$$$$
ZINC35397676


 26 27  0  0  0  0  0  0  0  0999 V2000
   -2.4176   -2.2278   -1.8141 C   0  0  0  0  0
   -2.3848   -0.8554   -1.5673 C   0  0  0  0  0
   -2.8502   -3.1052   -0.8197 C   0  0  0  0  0
    1.0013    0.7935   -0.3301 C   0  0  0  0  0
   -0.0244    2.6887   -1.3364 C   0  0  0  0  0
    2.0406    0.9073   -1.2468 C   0  0  0  0  0
   -3.2171   -1.2377    0.6685 C   0  0  0  0  0
   -0.0546    1.6973   -0.3690 C   0  0  0  0  0
   -2.7846   -0.3603   -0.3260 C   0  0  0  0  0
   -3.2498   -2.6102    0.4215 C   0  0  0  0  0
    1.9770    1.9340   -2.1751 C   0  0  0  0  0
    3.1580   -0.0514   -1.2036 C   0  0  0  0  0
   -3.6440   -0.6992    1.9987 C   0  0  0  0  0
    2.2793    2.2054   -5.4103 C   0  0  0  0  0
    3.8953    4.3198   -3.0771 C   0  0  0  0  0
    2.9609    1.3680   -4.3822 C   0  0  0  0  0
    4.1813    2.8811   -2.8108 C   0  0  0  0  0
    0.9678    2.8310   -2.2437 N   0  0  0  0  0
   -1.1440    1.6056    0.5654 N   0  0  0  0  0
    3.0328    2.0562   -3.1128 N   0  0  0  0  0
    3.0729   -1.1324   -1.8974 O   0  0  0  0  0
    4.1817    0.2242   -0.4732 O   0  0  0  0  0
   -3.6860    1.6795    0.9978 O   0  0  0  0  0
   -2.8585    2.0399   -1.3442 O   0  0  0  0  0
   -2.7315    1.3690   -0.0579 S   0  0  0  0  0
   -3.7733   -3.7313    1.6260 Cl  0  0  0  0  0
  1  3  1  0  0  0
  2  9  1  0  0  0
  4  8  1  0  0  0
  5 18  1  0  0  0
  6 11  1  0  0  0
  6 12  1  0  0  0
  7 10  1  0  0  0
  8 19  1  0  0  0
 10 26  1  0  0  0
 11 20  1  0  0  0
 12 21  1  0  0  0
 13  7  1  0  0  0
 14 16  1  0  0  0
 15 17  1  0  0  0
 16 20  1  0  0  0
 17 20  1  0  0  0
 25  9  1  0  0  0
 25 19  1  0  0  0
  1  2  2  0  0  0
  3 10  2  0  0  0
  4  6  2  0  0  0
  5  8  2  0  0  0
  7  9  2  0  0  0
 11 18  2  0  0  0
 12 22  2  0  0  0
 25 23  2  0  0  0
 25 24  2  0  0  0
M  CHG  1  21  -1
M  END
> <rmsd>
0.703859746

$$$$
ZINC20144741


 26 27  0  0  0  0  0  0  0  0999 V2000
   -2.7561   -0.8667    0.3880 C   0  0  0  0  0
   -5.0472   -0.3746   -0.1999 C   0  0  0  0  0
   -2.8889   -2.1417   -0.1619 C   0  0  0  0  0
   -5.1799   -1.6496   -0.7498 C   0  0  0  0  0
    0.8215    0.5499   -0.6481 C   0  0  0  0  0
    3.1117    0.6605    0.1133 C   0  0  0  0  0
    2.1597    0.1819   -0.7869 C   0  0  0  0  0
    0.4352    1.3967    0.3910 C   0  0  0  0  0
   -3.8353    0.0168    0.3691 C   0  0  0  0  0
    1.3871    1.8753    1.2911 C   0  0  0  0  0
   -4.1008   -2.5332   -0.7308 C   0  0  0  0  0
    2.7253    1.5073    1.1523 C   0  0  0  0  0
    2.5676   -0.7105   -1.8839 C   0  0  0  0  0
   -1.8714    1.8845   -0.4965 C   0  0  0  0  0
   -4.2763    2.4293   -1.1052 C   0  0  0  0  0
   -3.1776    3.5809    0.8526 C   0  0  0  0  0
    1.0193    4.1031    2.0379 C   0  0  0  0  0
   -3.2582    2.2984    0.0270 C   0  0  0  0  0
   -0.9276    1.7592    0.5174 N   0  0  0  0  0
    3.8095   -1.0347   -1.9900 O   0  0  0  0  0
    1.6692   -1.1377   -2.7021 O   0  0  0  0  0
   -1.6836    1.6987   -1.6971 O   0  0  0  0  0
    1.0018    2.7036    2.3055 O   0  0  0  0  0
   -3.7048    1.2675    0.9073 O   0  0  0  0  0
   -4.2645   -4.1057   -1.4103 Cl  0  0  0  0  0
    3.9261    2.0837    2.2495 Cl  0  0  0  0  0
  1  9  1  0  0  0
  2  4  1  0  0  0
  3 11  1  0  0  0
  5  8  1  0  0  0
  6  7  1  0  0  0
  7 13  1  0  0  0
  8 19  1  0  0  0
  9 24  1  0  0  0
 10 12  1  0  0  0
 10 23  1  0  0  0
 11 25  1  0  0  0
 12 26  1  0  0  0
 13 20  1  0  0  0
 14 19  1  0  0  0
 15 18  1  0  0  0
 16 18  1  0  0  0
 17 23  1  0  0  0
 18 14  1  0  0  0
 18 24  1  0  0  0
  1  3  2  0  0  0
  2  9  2  0  0  0
  4 11  2  0  0  0
  5  7  2  0  0  0
  6 12  2  0  0  0
  8 10  2  0  0  0
 13 21  2  0  0  0
 14 22  2  0  0  0
M  CHG  1  20  -1
M  END
> <rmsd>
0.380767018

$$$$
ZINC32962229


 27 29  0  0  0  0  0  0  0  0999 V2000
    0.8700    2.5254   -2.5699 C   0  0  0  0  0
   -0.1061    2.5019   -1.5737 C   0  0  0  0  0
   -3.5393   -2.5653    0.5394 C   0  0  0  0  0
   -3.3758   -1.1942    0.7371 C   0  0  0  0  0
    0.8590    0.4771   -0.6759 C   0  0  0  0  0
   -2.7407   -0.9359   -1.5796 C   0  0  0  0  0
    1.8350    0.5006   -1.6722 C   0  0  0  0  0
    1.8405    1.5247   -2.6191 C   0  0  0  0  0
   -0.1116    1.4777   -0.6266 C   0  0  0  0  0
   -3.3034   -3.1217   -0.7178 C   0  0  0  0  0
   -2.9041   -2.3070   -1.7773 C   0  0  0  0  0
   -2.9766   -0.3795   -0.3224 C   0  0  0  0  0
    2.8498   -0.5696   -1.7016 C   0  0  0  0  0
    4.0586    2.2933   -3.3571 C   0  0  0  0  0
    2.4043    1.5224   -5.0351 C   0  0  0  0  0
    5.1489    1.8139   -4.3086 C   0  0  0  0  0
    3.5831    1.0845   -5.8974 C   0  0  0  0  0
    2.8104    1.5662   -3.6261 N   0  0  0  0  0
   -1.1109    1.4541    0.3927 N   0  0  0  0  0
    2.6051   -1.6327   -2.3832 O   0  0  0  0  0
    3.9427   -0.4013   -1.0443 O   0  0  0  0  0
   -3.5967    1.7233    1.0632 O   0  0  0  0  0
   -2.9643    2.0187   -1.3477 O   0  0  0  0  0
    4.7130    1.9244   -5.6635 O   0  0  0  0  0
   -3.4604   -4.4382   -0.9083 F   0  0  0  0  0
   -2.6788   -2.8411   -2.9847 F   0  0  0  0  0
   -2.7674    1.3598   -0.0708 S   0  0  0  0  0
  1  2  1  0  0  0
  3 10  1  0  0  0
  4 12  1  0  0  0
  5  9  1  0  0  0
  6 11  1  0  0  0
  7  8  1  0  0  0
  7 13  1  0  0  0
  8 18  1  0  0  0
  9 19  1  0  0  0
 10 25  1  0  0  0
 11 26  1  0  0  0
 13 20  1  0  0  0
 14 16  1  0  0  0
 14 18  1  0  0  0
 15 17  1  0  0  0
 15 18  1  0  0  0
 16 24  1  0  0  0
 17 24  1  0  0  0
 27 12  1  0  0  0
 27 19  1  0  0  0
  1  8  2  0  0  0
  2  9  2  0  0  0
  3  4  2  0  0  0
  5  7  2  0  0  0
  6 12  2  0  0  0
 10 11  2  0  0  0
 13 21  2  0  0  0
 27 22  2  0  0  0
 27 23  2  0  0  0
M  CHG  1  20  -1
M  END
> <rmsd>
0.526486158

$$$$
ZINC32962229


 27 29  0  0  0  0  0  0  0  0999 V2000
    1.0221    2.8848   -2.1891 C   0  0  0  0  0
   -0.0375    2.7676   -1.2896 C   0  0  0  0  0
   -3.2441   -2.5876    0.4334 C   0  0  0  0  0
   -3.2077   -1.2120    0.6612 C   0  0  0  0  0
    0.9958    0.8068   -0.3279 C   0  0  0  0  0
   -2.3823   -0.8624   -1.5825 C   0  0  0  0  0
    2.0554    0.9240   -1.2275 C   0  0  0  0  0
    2.0685    1.9629   -2.1581 C   0  0  0  0  0
   -0.0506    1.7286   -0.3589 C   0  0  0  0  0
   -2.8494   -3.1007   -0.8022 C   0  0  0  0  0
   -2.4185   -2.2381   -1.8101 C   0  0  0  0  0
   -2.7769   -0.3493   -0.3468 C   0  0  0  0  0
    3.1493   -0.0640   -1.1734 C   0  0  0  0  0
    4.2784    2.9138   -2.6753 C   0  0  0  0  0
    2.8529    2.0491   -4.5101 C   0  0  0  0  0
    5.4867    2.5377   -3.5253 C   0  0  0  0  0
    4.1374    1.7195   -5.2625 C   0  0  0  0  0
    3.1215    2.0978   -3.0687 N   0  0  0  0  0
   -1.1354    1.6090    0.5616 N   0  0  0  0  0
    3.0532   -1.1300   -1.8871 O   0  0  0  0  0
    4.1598    0.1757   -0.4143 O   0  0  0  0  0
   -3.6863    1.6733    0.9980 O   0  0  0  0  0
   -2.8575    2.0614   -1.3392 O   0  0  0  0  0
    5.1713    2.6395   -4.9138 O   0  0  0  0  0
   -2.8842   -4.4216   -1.0216 F   0  0  0  0  0
   -2.0407   -2.7306   -2.9970 F   0  0  0  0  0
   -2.7292    1.3960   -0.0569 S   0  0  0  0  0
  1  2  1  0  0  0
  3 10  1  0  0  0
  4 12  1  0  0  0
  5  9  1  0  0  0
  6 11  1  0  0  0
  7  8  1  0  0  0
  7 13  1  0  0  0
  8 18  1  0  0  0
  9 19  1  0  0  0
 10 25  1  0  0  0
 11 26  1  0  0  0
 13 20  1  0  0  0
 14 16  1  0  0  0
 14 18  1  0  0  0
 15 17  1  0  0  0
 15 18  1  0  0  0
 16 24  1  0  0  0
 17 24  1  0  0  0
 27 12  1  0  0  0
 27 19  1  0  0  0
  1  8  2  0  0  0
  2  9  2  0  0  0
  3  4  2  0  0  0
  5  7  2  0  0  0
  6 12  2  0  0  0
 10 11  2  0  0  0
 13 21  2  0  0  0
 27 22  2  0  0  0
 27 23  2  0  0  0
M  CHG  1  20  -1
M  END
> <rmsd>
0.707425952

$$$$
ZINC32962229


 27 29  0  0  0  0  0  0  0  0999 V2000
    0.8692    2.5244   -2.5709 C   0  0  0  0  0
   -0.1067    2.5012   -1.5745 C   0  0  0  0  0
   -2.9079   -2.3073   -1.7772 C   0  0  0  0  0
   -2.7420   -0.9366   -1.5789 C   0  0  0  0  0
    0.8590    0.4770   -0.6759 C   0  0  0  0  0
   -3.3767   -1.1949    0.7379 C   0  0  0  0  0
    1.8348    0.5003   -1.6724 C   0  0  0  0  0
    1.8399    1.5239   -2.6198 C   0  0  0  0  0
   -0.1118    1.4774   -0.6270 C   0  0  0  0  0
   -3.3082   -3.1218   -0.7179 C   0  0  0  0  0
   -3.5427   -2.5656    0.5395 C   0  0  0  0  0
   -2.9763   -0.3804   -0.3214 C   0  0  0  0  0
    2.8499   -0.5696   -1.7015 C   0  0  0  0  0
    4.0577    2.2927   -3.3586 C   0  0  0  0  0
    2.4033    1.5206   -5.0359 C   0  0  0  0  0
    5.1479    1.8131   -4.3101 C   0  0  0  0  0
    3.5820    1.0827   -5.8982 C   0  0  0  0  0
    2.8096    1.5652   -3.6270 N   0  0  0  0  0
   -1.1109    1.4540    0.3926 N   0  0  0  0  0
    2.6053   -1.6332   -2.3826 O   0  0  0  0  0
    3.9428   -0.4008   -1.0445 O   0  0  0  0  0
   -3.5967    1.7229    1.0633 O   0  0  0  0  0
   -2.9647    2.0174   -1.3478 O   0  0  0  0  0
    4.7118    1.9229   -5.6649 O   0  0  0  0  0
   -3.4676   -4.4381   -0.9076 F   0  0  0  0  0
   -3.9259   -3.3479    1.5570 F   0  0  0  0  0
   -2.7675    1.3592   -0.0706 S   0  0  0  0  0
  1  2  1  0  0  0
  3 10  1  0  0  0
  4 12  1  0  0  0
  5  9  1  0  0  0
  6 11  1  0  0  0
  7  8  1  0  0  0
  7 13  1  0  0  0
  8 18  1  0  0  0
  9 19  1  0  0  0
 10 25  1  0  0  0
 11 26  1  0  0  0
 13 20  1  0  0  0
 14 16  1  0  0  0
 14 18  1  0  0  0
 15 17  1  0  0  0
 15 18  1  0  0  0
 16 24  1  0  0  0
 17 24  1  0  0  0
 27 12  1  0  0  0
 27 19  1  0  0  0
  1  8  2  0  0  0
  2  9  2  0  0  0
  3  4  2  0  0  0
  5  7  2  0  0  0
  6 12  2  0  0  0
 10 11  2  0  0  0
 13 21  2  0  0  0
 27 22  2  0  0  0
 27 23  2  0  0  0
M  CHG  1  20  -1
M  END
> <rmsd>
0.525569618

$$$$
ZINC32962229


 27 29  0  0  0  0  0  0  0  0999 V2000
    1.0212    2.8840   -2.1905 C   0  0  0  0  0
   -0.0382    2.7670   -1.2906 C   0  0  0  0  0
   -2.4222   -2.2386   -1.8104 C   0  0  0  0  0
   -2.3836   -0.8631   -1.5819 C   0  0  0  0  0
    0.9958    0.8069   -0.3282 C   0  0  0  0  0
   -3.2085   -1.2127    0.6619 C   0  0  0  0  0
    2.0551    0.9239   -1.2282 C   0  0  0  0  0
    2.0678    1.9624   -2.1592 C   0  0  0  0  0
   -0.0509    1.7284   -0.3595 C   0  0  0  0  0
   -2.8540   -3.1011   -0.8028 C   0  0  0  0  0
   -3.2472   -2.5882    0.4333 C   0  0  0  0  0
   -2.7767   -0.3501   -0.3457 C   0  0  0  0  0
    3.1493   -0.0638   -1.1738 C   0  0  0  0  0
    4.2773    2.9136   -2.6774 C   0  0  0  0  0
    2.8517    2.0476   -4.5115 C   0  0  0  0  0
    5.4855    2.5373   -3.5275 C   0  0  0  0  0
    4.1361    1.7180   -5.2640 C   0  0  0  0  0
    3.1206    2.0971   -3.0702 N   0  0  0  0  0
   -1.1354    1.6090    0.5613 N   0  0  0  0  0
    3.0533   -1.1302   -1.8869 O   0  0  0  0  0
    4.1599    0.1765   -0.4150 O   0  0  0  0  0
   -3.6862    1.6729    0.9982 O   0  0  0  0  0
   -2.8581    2.0601   -1.3393 O   0  0  0  0  0
    5.1698    2.6384   -4.9159 O   0  0  0  0  0
   -2.8912   -4.4221   -1.0215 F   0  0  0  0  0
   -3.6607   -3.4165    1.4012 F   0  0  0  0  0
   -2.7293    1.3954   -0.0567 S   0  0  0  0  0
  1  2  1  0  0  0
  3 10  1  0  0  0
  4 12  1  0  0  0
  5  9  1  0  0  0
  6 11  1  0  0  0
  7  8  1  0  0  0
  7 13  1  0  0  0
  8 18  1  0  0  0
  9 19  1  0  0  0
 10 25  1  0  0  0
 11 26  1  0  0  0
 13 20  1  0  0  0
 14 16  1  0  0  0
 14 18  1  0  0  0
 15 17  1  0  0  0
 15 18  1  0  0  0
 16 24  1  0  0  0
 17 24  1  0  0  0
 27 12  1  0  0  0
 27 19  1  0  0  0
  1  8  2  0  0  0
  2  9  2  0  0  0
  3  4  2  0  0  0
  5  7  2  0  0  0
  6 12  2  0  0  0
 10 11  2  0  0  0
 13 21  2  0  0  0
 27 22  2  0  0  0
 27 23  2  0  0  0
M  CHG  1  20  -1
M  END
> <rmsd>
0.706561267

$$$$
ZINC06720895


 28 31  0  0  0  0  0  0  0  0999 V2000
   -3.7274   -2.4935    0.9368 C   0  0  0  0  0
   -3.3940   -1.1472    0.6565 C   0  0  0  0  0
   -3.8604   -3.4469   -0.0876 C   0  0  0  0  0
    1.6971   -0.3988   -0.7048 C   0  0  0  0  0
   -2.8456   -0.2766   -3.4777 C   0  0  0  0  0
    0.5827   -0.0744    0.0687 C   0  0  0  0  0
   -2.6839    0.7667   -2.5484 C   0  0  0  0  0
    0.4981    2.1064   -0.9678 C   0  0  0  0  0
   -3.1853   -0.7275   -0.6747 C   0  0  0  0  0
   -3.3307   -1.7149   -1.6431 C   0  0  0  0  0
   -3.6529   -3.0207   -1.3821 C   0  0  0  0  0
    2.2120    0.5293   -1.6098 C   0  0  0  0  0
   -3.1737   -1.5246   -2.9890 C   0  0  0  0  0
   -0.0168    1.1782   -0.0628 C   0  0  0  0  0
    1.6125    1.7819   -1.7413 C   0  0  0  0  0
   -2.8498    0.5533   -1.1604 C   0  0  0  0  0
   -3.7058   -3.7272   -2.6801 C   0  0  0  0  0
    3.3903    0.1700   -2.4192 C   0  0  0  0  0
   -3.3237   -2.9350   -5.0607 C   0  0  0  0  0
   -3.4015   -2.7521   -3.6333 N   0  0  0  0  0
   -1.1655    1.5127    0.7353 N   0  0  0  0  0
    3.9125   -0.9962   -2.2660 O   0  0  0  0  0
   -3.9658   -4.9074   -2.8152 O   0  0  0  0  0
    3.8560    1.0350   -3.2504 O   0  0  0  0  0
   -3.7145    1.8752    0.8965 O   0  0  0  0  0
   -2.4384    3.1131   -0.8751 O   0  0  0  0  0
    2.1014    2.7023   -2.6194 O   0  0  0  0  0
   -2.6310    1.9105   -0.0766 S   0  0  0  0  0
  1  3  1  0  0  0
  2  9  1  0  0  0
  4 12  1  0  0  0
  5 13  1  0  0  0
  6 14  1  0  0  0
  7 16  1  0  0  0
  8 15  1  0  0  0
  9 10  1  0  0  0
 10 11  1  0  0  0
 11 17  1  0  0  0
 12 18  1  0  0  0
 13 20  1  0  0  0
 14 21  1  0  0  0
 15 27  1  0  0  0
 17 20  1  0  0  0
 18 22  1  0  0  0
 19 20  1  0  0  0
 28 16  1  0  0  0
 28 21  1  0  0  0
  1  2  2  0  0  0
  3 11  2  0  0  0
  4  6  2  0  0  0
  5  7  2  0  0  0
  8 14  2  0  0  0
  9 16  2  0  0  0
 10 13  2  0  0  0
 12 15  2  0  0  0
 17 23  2  0  0  0
 18 24  2  0  0  0
 28 25  2  0  0  0
 28 26  2  0  0  0
M  CHG  1  22  -1
M  END
> <rmsd>
0.491446584

$$$$
ZINC09301463


 28 30  0  0  0  0  0  0  0  0999 V2000
    2.6267    0.5185    1.5343 C   0  0  0  0  0
   -5.3075   -1.5290    0.2417 C   0  0  0  0  0
   -3.0805   -2.4481    0.4232 C   0  0  0  0  0
   -4.9676   -0.9465   -0.9793 C   0  0  0  0  0
   -2.7406   -1.8656   -0.7978 C   0  0  0  0  0
    1.3163    0.9961    1.5291 C   0  0  0  0  0
    3.1996    0.0406    0.3556 C   0  0  0  0  0
    1.1513    0.5179   -0.8334 C   0  0  0  0  0
   -4.3639   -2.2797    0.9429 C   0  0  0  0  0
   -3.6841   -1.1147   -1.4991 C   0  0  0  0  0
    0.5785    0.9957    0.3453 C   0  0  0  0  0
    2.4619    0.0403   -0.8282 C   0  0  0  0  0
   -3.3453    0.7765   -3.0749 C   0  0  0  0  0
   -3.3649    2.4607    0.4900 C   0  0  0  0  0
   -2.6557    1.9486   -0.7164 C   0  0  0  0  0
   -4.7272   -2.9024    2.2484 C   0  0  0  0  0
   -3.2360    3.9279    0.7799 C   0  0  0  0  0
   -2.9526    0.8672   -4.3246 N   0  0  0  0  0
   -2.7093   -0.4249   -4.7322 N   0  0  0  0  0
   -2.9477   -1.2873   -3.7515 N   0  0  0  0  0
   -1.4546    1.4922   -0.7999 N   0  0  0  0  0
   -3.3452   -0.5338   -2.7167 N   0  0  0  0  0
   -0.7405    1.4763    0.3400 N   0  0  0  0  0
    3.0458   -0.4482   -2.0272 N   0  0  0  0  0
    4.2255   -0.8744   -1.9990 O   0  0  0  0  0
   -4.0501    1.6785    1.1330 O   0  0  0  0  0
    2.3657   -0.4405   -3.0815 O   0  0  0  0  0
   -3.8080    2.1194   -1.9972 S   0  0  0  0  0
  1  7  1  0  0  0
  2  9  1  0  0  0
  3  5  1  0  0  0
  4 10  1  0  0  0
  6 11  1  0  0  0
  8 12  1  0  0  0
 10 22  1  0  0  0
 11 23  1  0  0  0
 12 24  1  0  0  0
 13 22  1  0  0  0
 13 28  1  0  0  0
 14 15  1  0  0  0
 15 28  1  0  0  0
 16  9  1  0  0  0
 17 14  1  0  0  0
 18 19  1  0  0  0
 22 20  1  0  0  0
 23 21  1  0  0  0
 24 25  1  0  0  0
  1  6  2  0  0  0
  2  4  2  0  0  0
  3  9  2  0  0  0
  5 10  2  0  0  0
  7 12  2  0  0  0
  8 11  2  0  0  0
 13 18  2  0  0  0
 14 26  2  0  0  0
 15 21  2  0  0  0
 19 20  2  0  0  0
 24 27  2  0  0  0
M  CHG  2  24   1  25  -1
M  END
> <rmsd>
0.36791268

$$$$
ZINC16923809


 28 30  0  0  0  0  0  0  0  0999 V2000
    1.3157   -1.3421    1.6522 C   0  0  0  0  0
    2.2261   -1.5086    0.6088 C   0  0  0  0  0
   -4.3089   -2.8943   -1.3680 C   0  0  0  0  0
   -4.1304   -1.5529   -1.7060 C   0  0  0  0  0
    0.3891   -0.3003    1.6099 C   0  0  0  0  0
    1.2837    0.4087   -0.5194 C   0  0  0  0  0
   -3.3327   -1.0963    0.5283 C   0  0  0  0  0
    2.2102   -0.6332   -0.4771 C   0  0  0  0  0
   -3.9994   -3.3368   -0.0819 C   0  0  0  0  0
   -3.5112   -2.4377    0.8663 C   0  0  0  0  0
   -3.6423   -0.6539   -0.7578 C   0  0  0  0  0
    0.3732    0.5752    0.5241 C   0  0  0  0  0
   -3.5806    1.7492   -0.1551 C   0  0  0  0  0
   -3.1648    1.1205   -2.4081 C   0  0  0  0  0
    3.1719   -0.8090   -1.5777 C   0  0  0  0  0
   -0.7225    2.5899   -0.5162 C   0  0  0  0  0
   -3.1952    3.0959   -0.7213 C   0  0  0  0  0
   -4.1992   -4.7776    0.2565 C   0  0  0  0  0
   -3.1734   -2.8884    2.2495 C   0  0  0  0  0
   -1.8535    3.5456   -0.1667 C   0  0  0  0  0
   -3.4579    0.7301   -1.1069 N   0  0  0  0  0
   -0.5668    1.6322    0.4819 N   0  0  0  0  0
    3.1362    0.0124   -2.5688 O   0  0  0  0  0
   -3.9687    1.6503    1.0067 O   0  0  0  0  0
   -2.9194    0.4367   -3.3909 O   0  0  0  0  0
    4.0168   -1.7788   -1.5131 O   0  0  0  0  0
   -0.0739    2.7002   -1.5513 O   0  0  0  0  0
   -3.1075    2.8717   -2.5072 S   0  0  0  0  0
  1  2  1  0  0  0
  3  9  1  0  0  0
  4 11  1  0  0  0
  5 12  1  0  0  0
  6  8  1  0  0  0
  7 10  1  0  0  0
  8 15  1  0  0  0
 11 21  1  0  0  0
 12 22  1  0  0  0
 13 21  1  0  0  0
 14 21  1  0  0  0
 14 28  1  0  0  0
 15 23  1  0  0  0
 16 22  1  0  0  0
 17 13  1  0  0  0
 17 20  1  0  0  0
 17 28  1  0  0  0
 18  9  1  0  0  0
 19 10  1  0  0  0
 20 16  1  0  0  0
  1  5  2  0  0  0
  2  8  2  0  0  0
  3  4  2  0  0  0
  6 12  2  0  0  0
  7 11  2  0  0  0
  9 10  2  0  0  0
 13 24  2  0  0  0
 14 25  2  0  0  0
 15 26  2  0  0  0
 16 27  2  0  0  0
M  CHG  1  23  -1
M  END
> <rmsd>
0.330184907

$$$$
ZINC64683508


 29 31  0  0  0  0  0  0  0  0999 V2000
   -7.4680    2.8802   -0.2823 C   0  0  0  0  0
   -7.9953    4.0777   -0.7655 C   0  0  0  0  0
   -6.1125    2.7928    0.0351 C   0  0  0  0  0
   -7.1671    5.1877   -0.9315 C   0  0  0  0  0
   -5.2843    3.9028   -0.1309 C   0  0  0  0  0
   -5.8116    5.1003   -0.6141 C   0  0  0  0  0
   -3.3125   -2.2792    0.7877 C   0  0  0  0  0
   -4.5489   -2.1725    0.0267 C   0  0  0  0  0
   -2.1083   -2.1408    0.2076 C   0  0  0  0  0
   -4.5843   -1.9314   -1.2954 C   0  0  0  0  0
   -2.0525   -1.8819   -1.1979 C   0  0  0  0  0
   -1.0743   -1.6912   -2.0950 C   0  0  0  0  0
   -3.2959   -1.7713   -1.9840 C   0  0  0  0  0
   -3.2245    2.7013    0.6801 C   0  0  0  0  0
    2.4915   -0.2858   -1.3776 C   0  0  0  0  0
   -0.4257    1.4876   -0.5446 C   0  0  0  0  0
   -1.6362   -1.4538   -3.4740 C   0  0  0  0  0
    0.3960   -1.6916   -1.8744 C   0  0  0  0  0
   -1.7597    3.0325    0.8909 C   0  0  0  0  0
    0.9663   -0.2943   -1.5890 C   0  0  0  0  0
   -3.0854   -1.5389   -3.2214 N   0  0  0  0  0
   -3.9093    3.8107    0.1914 N   0  0  0  0  0
   -0.9541    1.8499    0.6915 N   0  0  0  0  0
    0.3070    0.3089   -0.4510 N   0  0  0  0  0
    3.1504   -1.1695   -1.9923 O   0  0  0  0  0
   -3.6834    1.5880    0.9150 O   0  0  0  0  0
    2.9044    0.6190   -0.5945 O   0  0  0  0  0
   -0.5850    2.1262   -1.5841 O   0  0  0  0  0
   -5.0251    6.1738   -0.7778 F   0  0  0  0  0
  1  2  1  0  0  0
  3  5  1  0  0  0
  4  6  1  0  0  0
  5 22  1  0  0  0
  6 29  1  0  0  0
  7  8  1  0  0  0
  9 11  1  0  0  0
 10 13  1  0  0  0
 11 13  1  0  0  0
 14 22  1  0  0  0
 15 25  1  0  0  0
 16 23  1  0  0  0
 16 24  1  0  0  0
 17 12  1  0  0  0
 17 21  1  0  0  0
 18 12  1  0  0  0
 18 20  1  0  0  0
 19 14  1  0  0  0
 19 23  1  0  0  0
 20 15  1  0  0  0
 20 24  1  0  0  0
  1  3  2  0  0  0
  2  4  2  0  0  0
  5  6  2  0  0  0
  7  9  2  0  0  0
  8 10  2  0  0  0
 11 12  2  0  0  0
 13 21  2  0  0  0
 14 26  2  0  0  0
 15 27  2  0  0  0
 16 28  2  0  0  0
M  CHG  2  21   1  25  -1
M  END
> <rmsd>
0.561458945

$$$$
ZINC50638516


 28 30  0  0  0  0  0  0  0  0999 V2000
   -6.6703    5.1670   -1.8175 C   0  0  0  0  0
   -2.3484   -2.7775    0.0572 C   0  0  0  0  0
   -3.0012   -0.9888   -1.4299 C   0  0  0  0  0
   -3.6076   -2.7393    0.6559 C   0  0  0  0  0
   -4.2606   -0.9507   -0.8312 C   0  0  0  0  0
   -5.3495    5.0164   -1.3953 C   0  0  0  0  0
   -7.6063    4.1681   -1.5495 C   0  0  0  0  0
   -5.9006    2.8682   -0.4369 C   0  0  0  0  0
   -2.0451   -1.9022   -0.9857 C   0  0  0  0  0
   -4.5637   -1.8260    0.2117 C   0  0  0  0  0
   -4.9646    3.8671   -0.7050 C   0  0  0  0  0
   -7.2215    3.0187   -0.8591 C   0  0  0  0  0
   -0.7430   -1.9422   -1.6053 C   0  0  0  0  0
    1.3453   -1.5345   -2.0316 C   0  0  0  0  0
   -0.3340    1.0392   -0.4138 C   0  0  0  0  0
   -3.0723    2.6413    0.4179 C   0  0  0  0  0
   -5.9101   -1.7851    0.8520 C   0  0  0  0  0
    0.3375   -0.2763   -0.0819 C   0  0  0  0  0
   -1.5979    2.8811    0.6799 C   0  0  0  0  0
   -0.4006   -2.6767   -2.6396 N   0  0  0  0  0
    0.9281   -2.4172   -2.9109 N   0  0  0  0  0
    0.3257   -1.2073   -1.1901 N   0  0  0  0  0
   -3.6244    3.7144   -0.2766 N   0  0  0  0  0
   -0.8930    1.6207    0.7148 N   0  0  0  0  0
   -0.3708    1.5136   -1.5460 O   0  0  0  0  0
   -3.6430    1.6181    0.7819 O   0  0  0  0  0
   -8.1206    2.0600   -0.6017 F   0  0  0  0  0
    2.9116   -0.8891   -1.9389 S   0  0  0  0  0
  1  7  1  0  0  0
  2  9  1  0  0  0
  3  5  1  0  0  0
  4 10  1  0  0  0
  6 11  1  0  0  0
  8 12  1  0  0  0
  9 13  1  0  0  0
 11 23  1  0  0  0
 12 27  1  0  0  0
 13 22  1  0  0  0
 14 21  1  0  0  0
 14 22  1  0  0  0
 15 24  1  0  0  0
 16 23  1  0  0  0
 17 10  1  0  0  0
 18 15  1  0  0  0
 18 22  1  0  0  0
 19 16  1  0  0  0
 19 24  1  0  0  0
 20 21  1  0  0  0
  1  6  2  0  0  0
  2  4  2  0  0  0
  3  9  2  0  0  0
  5 10  2  0  0  0
  7 12  2  0  0  0
  8 11  2  0  0  0
 13 20  2  0  0  0
 14 28  2  0  0  0
 15 25  2  0  0  0
 16 26  2  0  0  0
M  CHG  1  28  -1
M  END
> <rmsd>
0.498968065

$$$$
ZINC50638516


 28 30  0  0  0  0  0  0  0  0999 V2000
   -7.2218    3.0183   -0.8589 C   0  0  0  0  0
   -2.3487   -2.7779    0.0573 C   0  0  0  0  0
   -3.0015   -0.9893   -1.4299 C   0  0  0  0  0
   -3.6078   -2.7398    0.6560 C   0  0  0  0  0
   -4.2609   -0.9512   -0.8312 C   0  0  0  0  0
   -5.9009    2.8678   -0.4368 C   0  0  0  0  0
   -7.6068    4.1676   -1.5493 C   0  0  0  0  0
   -5.3499    5.0160   -1.3954 C   0  0  0  0  0
   -2.0454   -1.9027   -0.9857 C   0  0  0  0  0
   -4.5640   -1.8265    0.2118 C   0  0  0  0  0
   -4.9649    3.8666   -0.7051 C   0  0  0  0  0
   -6.6708    5.1665   -1.8174 C   0  0  0  0  0
   -0.7433   -1.9427   -1.6053 C   0  0  0  0  0
    1.3450   -1.5350   -2.0316 C   0  0  0  0  0
   -0.3343    1.0387   -0.4139 C   0  0  0  0  0
   -3.0726    2.6408    0.4178 C   0  0  0  0  0
   -5.9103   -1.7856    0.8521 C   0  0  0  0  0
    0.3372   -0.2767   -0.0820 C   0  0  0  0  0
   -1.5982    2.8807    0.6798 C   0  0  0  0  0
   -0.4009   -2.6773   -2.6396 N   0  0  0  0  0
    0.9277   -2.4178   -2.9109 N   0  0  0  0  0
    0.3254   -1.2078   -1.1901 N   0  0  0  0  0
   -3.6248    3.7139   -0.2767 N   0  0  0  0  0
   -0.8933    1.6202    0.7147 N   0  0  0  0  0
   -0.3712    1.5131   -1.5461 O   0  0  0  0  0
   -3.6433    1.6177    0.7818 O   0  0  0  0  0
   -7.0408    6.2698   -2.4805 F   0  0  0  0  0
    2.9113   -0.8896   -1.9390 S   0  0  0  0  0
  1  7  1  0  0  0
  2  9  1  0  0  0
  3  5  1  0  0  0
  4 10  1  0  0  0
  6 11  1  0  0  0
  8 12  1  0  0  0
  9 13  1  0  0  0
 11 23  1  0  0  0
 12 27  1  0  0  0
 13 22  1  0  0  0
 14 21  1  0  0  0
 14 22  1  0  0  0
 15 24  1  0  0  0
 16 23  1  0  0  0
 17 10  1  0  0  0
 18 15  1  0  0  0
 18 22  1  0  0  0
 19 16  1  0  0  0
 19 24  1  0  0  0
 20 21  1  0  0  0
  1  6  2  0  0  0
  2  4  2  0  0  0
  3  9  2  0  0  0
  5 10  2  0  0  0
  7 12  2  0  0  0
  8 11  2  0  0  0
 13 20  2  0  0  0
 14 28  2  0  0  0
 15 25  2  0  0  0
 16 26  2  0  0  0
M  CHG  1  28  -1
M  END
> <rmsd>
0.498936534

$$$$
ZINC50638516


 28 30  0  0  0  0  0  0  0  0999 V2000
   -7.1312    5.6451    0.7320 C   0  0  0  0  0
   -2.3525   -2.7950   -0.0223 C   0  0  0  0  0
   -2.9029   -1.1154   -1.6695 C   0  0  0  0  0
   -3.6549   -2.7357    0.4733 C   0  0  0  0  0
   -4.2055   -1.0562   -1.1739 C   0  0  0  0  0
   -5.7762    5.4126    0.4962 C   0  0  0  0  0
   -7.9456    4.6122    1.1962 C   0  0  0  0  0
   -6.0501    3.1141    1.1885 C   0  0  0  0  0
   -1.9764   -1.9848   -1.0938 C   0  0  0  0  0
   -4.5815   -1.8664   -0.1024 C   0  0  0  0  0
   -5.2357    4.1472    0.7244 C   0  0  0  0  0
   -7.4051    3.3467    1.4244 C   0  0  0  0  0
   -0.6296   -2.0467   -1.6068 C   0  0  0  0  0
    1.4820   -1.6385   -1.8960 C   0  0  0  0  0
   -0.3412    1.0108   -0.5852 C   0  0  0  0  0
   -3.1615    2.7197    0.6572 C   0  0  0  0  0
   -5.9740   -1.8029    0.4277 C   0  0  0  0  0
    0.3139   -0.2710   -0.1168 C   0  0  0  0  0
   -1.7029    2.9019    0.2844 C   0  0  0  0  0
   -0.2009   -2.8418   -2.5611 N   0  0  0  0  0
    1.1425   -2.5819   -2.7452 N   0  0  0  0  0
    0.3969   -1.2717   -1.1592 N   0  0  0  0  0
   -3.8610    3.9112    0.4849 N   0  0  0  0  0
   -0.9918    1.6563    0.4563 N   0  0  0  0  0
   -0.2937    1.4105   -1.7455 O   0  0  0  0  0
   -3.6087    1.6436    1.0411 O   0  0  0  0  0
   -8.1874    2.3553    1.8703 F   0  0  0  0  0
    3.0305   -0.9668   -1.7248 S   0  0  0  0  0
  1  7  1  0  0  0
  2  9  1  0  0  0
  3  5  1  0  0  0
  4 10  1  0  0  0
  6 11  1  0  0  0
  8 12  1  0  0  0
  9 13  1  0  0  0
 11 23  1  0  0  0
 12 27  1  0  0  0
 13 22  1  0  0  0
 14 21  1  0  0  0
 14 22  1  0  0  0
 15 24  1  0  0  0
 16 23  1  0  0  0
 17 10  1  0  0  0
 18 15  1  0  0  0
 18 22  1  0  0  0
 19 16  1  0  0  0
 19 24  1  0  0  0
 20 21  1  0  0  0
  1  6  2  0  0  0
  2  4  2  0  0  0
  3  9  2  0  0  0
  5 10  2  0  0  0
  7 12  2  0  0  0
  8 11  2  0  0  0
 13 20  2  0  0  0
 14 28  2  0  0  0
 15 25  2  0  0  0
 16 26  2  0  0  0
M  CHG  1  28  -1
M  END
> <rmsd>
0.539658606

$$$$
ZINC50638516


 28 30  0  0  0  0  0  0  0  0999 V2000
   -7.4049    3.3471    1.4248 C   0  0  0  0  0
   -2.3526   -2.7948   -0.0223 C   0  0  0  0  0
   -2.9029   -1.1152   -1.6694 C   0  0  0  0  0
   -3.6550   -2.7355    0.4734 C   0  0  0  0  0
   -4.2055   -1.0560   -1.1738 C   0  0  0  0  0
   -6.0500    3.1145    1.1886 C   0  0  0  0  0
   -7.9454    4.6126    1.1966 C   0  0  0  0  0
   -5.7761    5.4129    0.4963 C   0  0  0  0  0
   -1.9765   -1.9846   -1.0937 C   0  0  0  0  0
   -4.5815   -1.8662   -0.1023 C   0  0  0  0  0
   -5.2356    4.1474    0.7245 C   0  0  0  0  0
   -7.1310    5.6455    0.7324 C   0  0  0  0  0
   -0.6297   -2.0466   -1.6067 C   0  0  0  0  0
    1.4819   -1.6384   -1.8960 C   0  0  0  0  0
   -0.3412    1.0110   -0.5851 C   0  0  0  0  0
   -3.1615    2.7199    0.6573 C   0  0  0  0  0
   -5.9740   -1.8026    0.4278 C   0  0  0  0  0
    0.3139   -0.2708   -0.1168 C   0  0  0  0  0
   -1.7028    2.9021    0.2845 C   0  0  0  0  0
   -0.2011   -2.8416   -2.5611 N   0  0  0  0  0
    1.1424   -2.5818   -2.7452 N   0  0  0  0  0
    0.3969   -1.2716   -1.1591 N   0  0  0  0  0
   -3.8609    3.9114    0.4850 N   0  0  0  0  0
   -0.9918    1.6564    0.4563 N   0  0  0  0  0
   -0.2937    1.4107   -1.7454 O   0  0  0  0  0
   -3.6087    1.6438    1.0412 O   0  0  0  0  0
   -7.6505    6.8603    0.5133 F   0  0  0  0  0
    3.0304   -0.9667   -1.7249 S   0  0  0  0  0
  1  7  1  0  0  0
  2  9  1  0  0  0
  3  5  1  0  0  0
  4 10  1  0  0  0
  6 11  1  0  0  0
  8 12  1  0  0  0
  9 13  1  0  0  0
 11 23  1  0  0  0
 12 27  1  0  0  0
 13 22  1  0  0  0
 14 21  1  0  0  0
 14 22  1  0  0  0
 15 24  1  0  0  0
 16 23  1  0  0  0
 17 10  1  0  0  0
 18 15  1  0  0  0
 18 22  1  0  0  0
 19 16  1  0  0  0
 19 24  1  0  0  0
 20 21  1  0  0  0
  1  6  2  0  0  0
  2  4  2  0  0  0
  3  9  2  0  0  0
  5 10  2  0  0  0
  7 12  2  0  0  0
  8 11  2  0  0  0
 13 20  2  0  0  0
 14 28  2  0  0  0
 15 25  2  0  0  0
 16 26  2  0  0  0
M  CHG  1  28  -1
M  END
> <rmsd>
0.539587557

$$$$
ZINC64498553


 28 30  0  0  0  0  0  0  0  0999 V2000
   -2.3482   -2.7779    0.0571 C   0  0  0  0  0
   -3.0011   -0.9892   -1.4301 C   0  0  0  0  0
   -3.6074   -2.7397    0.6557 C   0  0  0  0  0
   -4.2605   -0.9512   -0.8314 C   0  0  0  0  0
   -5.3495    5.0159   -1.3956 C   0  0  0  0  0
   -5.9008    2.8682   -0.4363 C   0  0  0  0  0
   -6.6706    5.1668   -1.8171 C   0  0  0  0  0
   -7.2220    3.0190   -0.8577 C   0  0  0  0  0
   -2.0450   -1.9026   -0.9859 C   0  0  0  0  0
   -4.5636   -1.8264    0.2116 C   0  0  0  0  0
   -4.9646    3.8666   -0.7053 C   0  0  0  0  0
   -7.6068    4.1683   -1.5481 C   0  0  0  0  0
   -0.7429   -1.9426   -1.6055 C   0  0  0  0  0
    1.3454   -1.5349   -2.0317 C   0  0  0  0  0
   -0.3340    1.0388   -0.4140 C   0  0  0  0  0
   -3.0723    2.6409    0.4176 C   0  0  0  0  0
   -5.9099   -1.7855    0.8518 C   0  0  0  0  0
    0.3376   -0.2766   -0.0821 C   0  0  0  0  0
   -1.5979    2.8808    0.6796 C   0  0  0  0  0
   -0.4004   -2.6771   -2.6397 N   0  0  0  0  0
    0.9282   -2.4176   -2.9110 N   0  0  0  0  0
    0.3258   -1.2076   -1.1902 N   0  0  0  0  0
   -3.6244    3.7139   -0.2769 N   0  0  0  0  0
   -0.8930    1.6204    0.7146 N   0  0  0  0  0
   -0.3708    1.5133   -1.5462 O   0  0  0  0  0
   -3.6430    1.6177    0.7816 O   0  0  0  0  0
   -8.8754    4.3132   -1.9522 F   0  0  0  0  0
    2.9117   -0.8894   -1.9390 S   0  0  0  0  0
  1  9  1  0  0  0
  2  4  1  0  0  0
  3 10  1  0  0  0
  5 11  1  0  0  0
  6  8  1  0  0  0
  7 12  1  0  0  0
  9 13  1  0  0  0
 11 23  1  0  0  0
 12 27  1  0  0  0
 13 22  1  0  0  0
 14 21  1  0  0  0
 14 22  1  0  0  0
 15 24  1  0  0  0
 16 23  1  0  0  0
 17 10  1  0  0  0
 18 15  1  0  0  0
 18 22  1  0  0  0
 19 16  1  0  0  0
 19 24  1  0  0  0
 20 21  1  0  0  0
  1  3  2  0  0  0
  2  9  2  0  0  0
  4 10  2  0  0  0
  5  7  2  0  0  0
  6 11  2  0  0  0
  8 12  2  0  0  0
 13 20  2  0  0  0
 14 28  2  0  0  0
 15 25  2  0  0  0
 16 26  2  0  0  0
M  CHG  1  28  -1
M  END
> <rmsd>
0.49892959

$$$$
ZINC64498553


 28 30  0  0  0  0  0  0  0  0999 V2000
   -2.3528   -2.7947   -0.0224 C   0  0  0  0  0
   -2.9031   -1.1152   -1.6695 C   0  0  0  0  0
   -3.6551   -2.7354    0.4733 C   0  0  0  0  0
   -4.2057   -1.0559   -1.1739 C   0  0  0  0  0
   -5.7763    5.4130    0.4961 C   0  0  0  0  0
   -6.0500    3.1148    1.1894 C   0  0  0  0  0
   -7.1310    5.6457    0.7329 C   0  0  0  0  0
   -7.4047    3.3476    1.4262 C   0  0  0  0  0
   -1.9767   -1.9846   -1.0938 C   0  0  0  0  0
   -4.5817   -1.8661   -0.1024 C   0  0  0  0  0
   -5.2357    4.1475    0.7244 C   0  0  0  0  0
   -7.9452    4.6130    1.1981 C   0  0  0  0  0
   -0.6298   -2.0465   -1.6069 C   0  0  0  0  0
    1.4817   -1.6383   -1.8961 C   0  0  0  0  0
   -0.3414    1.0110   -0.5853 C   0  0  0  0  0
   -3.1616    2.7200    0.6571 C   0  0  0  0  0
   -5.9742   -1.8025    0.4277 C   0  0  0  0  0
    0.3137   -0.2708   -0.1169 C   0  0  0  0  0
   -1.7030    2.9021    0.2843 C   0  0  0  0  0
   -0.2012   -2.8416   -2.5612 N   0  0  0  0  0
    1.1422   -2.5817   -2.7453 N   0  0  0  0  0
    0.3967   -1.2715   -1.1593 N   0  0  0  0  0
   -3.8610    3.9114    0.4849 N   0  0  0  0  0
   -0.9919    1.6565    0.4562 N   0  0  0  0  0
   -0.2938    1.4107   -1.7456 O   0  0  0  0  0
   -3.6088    1.6439    1.0411 O   0  0  0  0  0
   -9.2459    4.8364    1.4260 F   0  0  0  0  0
    3.0302   -0.9666   -1.7250 S   0  0  0  0  0
  1  9  1  0  0  0
  2  4  1  0  0  0
  3 10  1  0  0  0
  5 11  1  0  0  0
  6  8  1  0  0  0
  7 12  1  0  0  0
  9 13  1  0  0  0
 11 23  1  0  0  0
 12 27  1  0  0  0
 13 22  1  0  0  0
 14 21  1  0  0  0
 14 22  1  0  0  0
 15 24  1  0  0  0
 16 23  1  0  0  0
 17 10  1  0  0  0
 18 15  1  0  0  0
 18 22  1  0  0  0
 19 16  1  0  0  0
 19 24  1  0  0  0
 20 21  1  0  0  0
  1  3  2  0  0  0
  2  9  2  0  0  0
  4 10  2  0  0  0
  5  7  2  0  0  0
  6 11  2  0  0  0
  8 12  2  0  0  0
 13 20  2  0  0  0
 14 28  2  0  0  0
 15 25  2  0  0  0
 16 26  2  0  0  0
M  CHG  1  28  -1
M  END
> <rmsd>
0.539587557

$$$$
ZINC11613987


 28 30  0  0  0  0  0  0  0  0999 V2000
   -3.8640   -3.3237    0.0877 C   0  0  0  0  0
   -3.7123   -2.3079    1.0268 C   0  0  0  0  0
   -3.6778   -3.0546   -1.2686 C   0  0  0  0  0
   -3.3739   -1.0192    0.6135 C   0  0  0  0  0
    1.6326    1.7818   -1.7078 C   0  0  0  0  0
    1.6937   -0.4158   -0.7060 C   0  0  0  0  0
    0.5138    2.1014   -0.9386 C   0  0  0  0  0
    0.5749   -0.0962    0.0633 C   0  0  0  0  0
   -2.8073   -0.1854   -3.4770 C   0  0  0  0  0
   -2.6557    0.8303   -2.5378 C   0  0  0  0  0
   -3.3369   -1.7631   -1.7026 C   0  0  0  0  0
   -3.1827   -0.7302   -0.7475 C   0  0  0  0  0
    2.2225    0.5231   -1.5916 C   0  0  0  0  0
   -0.0150    1.1624   -0.0530 C   0  0  0  0  0
   -3.1456   -1.4743   -3.0637 C   0  0  0  0  0
   -2.8419    0.5613   -1.1815 C   0  0  0  0  0
    3.4037    0.1860   -2.4027 C   0  0  0  0  0
   -1.0166   -6.0069   -6.5297 C   0  0  0  0  0
   -0.9824   -4.5423   -6.1237 C   0  0  0  0  0
   -2.1907   -4.1704   -5.2690 C   0  0  0  0  0
   -2.1383   -2.7157   -4.8243 C   0  0  0  0  0
   -1.1695    1.4914    0.7390 N   0  0  0  0  0
    3.9293   -0.9829   -2.2760 O   0  0  0  0  0
    3.8727    1.0711   -3.2120 O   0  0  0  0  0
   -3.7178    1.8647    0.8823 O   0  0  0  0  0
   -2.4204    3.1156   -0.8645 O   0  0  0  0  0
   -3.2819   -2.4384   -4.0213 O   0  0  0  0  0
   -2.6250    1.9107   -0.0766 S   0  0  0  0  0
  1  2  1  0  0  0
  3 11  1  0  0  0
  4 12  1  0  0  0
  5 13  1  0  0  0
  6  8  1  0  0  0
  7 14  1  0  0  0
  9 15  1  0  0  0
 10 16  1  0  0  0
 11 12  1  0  0  0
 13 17  1  0  0  0
 14 22  1  0  0  0
 15 27  1  0  0  0
 17 23  1  0  0  0
 18 19  1  0  0  0
 19 20  1  0  0  0
 20 21  1  0  0  0
 21 27  1  0  0  0
 28 16  1  0  0  0
 28 22  1  0  0  0
  1  3  2  0  0  0
  2  4  2  0  0  0
  5  7  2  0  0  0
  6 13  2  0  0  0
  8 14  2  0  0  0
  9 10  2  0  0  0
 11 15  2  0  0  0
 12 16  2  0  0  0
 17 24  2  0  0  0
 28 25  2  0  0  0
 28 26  2  0  0  0
M  CHG  1  23  -1
M  END
> <rmsd>
0.467662185

$$$$
ZINC11613987


 28 30  0  0  0  0  0  0  0  0999 V2000
   -3.8640   -3.3237    0.0882 C   0  0  0  0  0
   -3.7124   -2.3078    1.0272 C   0  0  0  0  0
   -3.6779   -3.0547   -1.2681 C   0  0  0  0  0
   -3.3740   -1.0191    0.6138 C   0  0  0  0  0
    1.6323    1.7819   -1.7079 C   0  0  0  0  0
    1.6935   -0.4156   -0.7059 C   0  0  0  0  0
    0.5135    2.1015   -0.9387 C   0  0  0  0  0
    0.5747   -0.0960    0.0634 C   0  0  0  0  0
   -2.8076   -0.1857   -3.4769 C   0  0  0  0  0
   -2.6560    0.8301   -2.5377 C   0  0  0  0  0
   -3.3371   -1.7632   -1.7023 C   0  0  0  0  0
   -3.1829   -0.7302   -0.7473 C   0  0  0  0  0
    2.2223    0.5233   -1.5916 C   0  0  0  0  0
   -0.0153    1.1626   -0.0530 C   0  0  0  0  0
   -3.1459   -1.4745   -3.0633 C   0  0  0  0  0
   -2.8422    0.5612   -1.1814 C   0  0  0  0  0
    3.4034    0.1861   -2.4027 C   0  0  0  0  0
   -6.3847   -4.7524   -7.0507 C   0  0  0  0  0
   -5.8759   -3.4045   -6.5655 C   0  0  0  0  0
   -4.8165   -3.5648   -5.4788 C   0  0  0  0  0
   -4.2731   -2.2189   -5.0205 C   0  0  0  0  0
   -1.1697    1.4916    0.7390 N   0  0  0  0  0
    3.9291   -0.9828   -2.2760 O   0  0  0  0  0
    3.8724    1.0711   -3.2122 O   0  0  0  0  0
   -3.7181    1.8648    0.8823 O   0  0  0  0  0
   -2.4208    3.1156   -0.8646 O   0  0  0  0  0
   -3.2822   -2.4387   -4.0209 O   0  0  0  0  0
   -2.6253    1.9108   -0.0766 S   0  0  0  0  0
  1  2  1  0  0  0
  3 11  1  0  0  0
  4 12  1  0  0  0
  5 13  1  0  0  0
  6  8  1  0  0  0
  7 14  1  0  0  0
  9 15  1  0  0  0
 10 16  1  0  0  0
 11 12  1  0  0  0
 13 17  1  0  0  0
 14 22  1  0  0  0
 15 27  1  0  0  0
 17 23  1  0  0  0
 18 19  1  0  0  0
 19 20  1  0  0  0
 20 21  1  0  0  0
 21 27  1  0  0  0
 28 16  1  0  0  0
 28 22  1  0  0  0
  1  3  2  0  0  0
  2  4  2  0  0  0
  5  7  2  0  0  0
  6 13  2  0  0  0
  8 14  2  0  0  0
  9 10  2  0  0  0
 11 15  2  0  0  0
 12 16  2  0  0  0
 17 24  2  0  0  0
 28 25  2  0  0  0
 28 26  2  0  0  0
M  CHG  1  23  -1
M  END
> <rmsd>
0.467688262

$$$$
ZINC11613987


 28 30  0  0  0  0  0  0  0  0999 V2000
   -3.8638   -3.3238    0.0882 C   0  0  0  0  0
   -3.7121   -2.3079    1.0272 C   0  0  0  0  0
   -3.6777   -3.0548   -1.2681 C   0  0  0  0  0
   -3.3738   -1.0192    0.6138 C   0  0  0  0  0
    1.6325    1.7817   -1.7081 C   0  0  0  0  0
    1.6938   -0.4158   -0.7060 C   0  0  0  0  0
    0.5138    2.1014   -0.9389 C   0  0  0  0  0
    0.5750   -0.0962    0.0633 C   0  0  0  0  0
   -2.8074   -0.1858   -3.4769 C   0  0  0  0  0
   -2.6558    0.8300   -2.5378 C   0  0  0  0  0
   -3.3369   -1.7633   -1.7023 C   0  0  0  0  0
   -3.1827   -0.7303   -0.7473 C   0  0  0  0  0
    2.2225    0.5231   -1.5917 C   0  0  0  0  0
   -0.0150    1.1625   -0.0531 C   0  0  0  0  0
   -3.1457   -1.4747   -3.0634 C   0  0  0  0  0
   -2.8419    0.5611   -1.1815 C   0  0  0  0  0
    3.4036    0.1859   -2.4029 C   0  0  0  0  0
   -3.9224   -1.9026   -8.8645 C   0  0  0  0  0
   -4.6048   -1.9580   -7.5072 C   0  0  0  0  0
   -3.5999   -2.2058   -6.3857 C   0  0  0  0  0
   -4.2729   -2.2191   -5.0205 C   0  0  0  0  0
   -1.1694    1.4915    0.7389 N   0  0  0  0  0
    3.9293   -0.9829   -2.2761 O   0  0  0  0  0
    3.8726    1.0709   -3.2123 O   0  0  0  0  0
   -3.7178    1.8647    0.8822 O   0  0  0  0  0
   -2.4206    3.1155   -0.8647 O   0  0  0  0  0
   -3.2820   -2.4389   -4.0209 O   0  0  0  0  0
   -2.6250    1.9106   -0.0767 S   0  0  0  0  0
  1  2  1  0  0  0
  3 11  1  0  0  0
  4 12  1  0  0  0
  5 13  1  0  0  0
  6  8  1  0  0  0
  7 14  1  0  0  0
  9 15  1  0  0  0
 10 16  1  0  0  0
 11 12  1  0  0  0
 13 17  1  0  0  0
 14 22  1  0  0  0
 15 27  1  0  0  0
 17 23  1  0  0  0
 18 19  1  0  0  0
 19 20  1  0  0  0
 20 21  1  0  0  0
 21 27  1  0  0  0
 28 16  1  0  0  0
 28 22  1  0  0  0
  1  3  2  0  0  0
  2  4  2  0  0  0
  5  7  2  0  0  0
  6 13  2  0  0  0
  8 14  2  0  0  0
  9 10  2  0  0  0
 11 15  2  0  0  0
 12 16  2  0  0  0
 17 24  2  0  0  0
 28 25  2  0  0  0
 28 26  2  0  0  0
M  CHG  1  23  -1
M  END
> <rmsd>
0.46796003

$$$$
ZINC11613987


 28 30  0  0  0  0  0  0  0  0999 V2000
   -3.8635   -3.3241    0.0880 C   0  0  0  0  0
   -3.7118   -2.3082    1.0271 C   0  0  0  0  0
   -3.6773   -3.0550   -1.2683 C   0  0  0  0  0
   -3.3735   -1.0195    0.6137 C   0  0  0  0  0
    1.6328    1.7815   -1.7079 C   0  0  0  0  0
    1.6941   -0.4160   -0.7059 C   0  0  0  0  0
    0.5140    2.1011   -0.9388 C   0  0  0  0  0
    0.5753   -0.0964    0.0633 C   0  0  0  0  0
   -2.8070   -0.1860   -3.4770 C   0  0  0  0  0
   -2.6554    0.8298   -2.5378 C   0  0  0  0  0
   -3.3365   -1.7636   -1.7024 C   0  0  0  0  0
   -3.1824   -0.7306   -0.7474 C   0  0  0  0  0
    2.2228    0.5229   -1.5916 C   0  0  0  0  0
   -0.0147    1.1622   -0.0531 C   0  0  0  0  0
   -3.1453   -1.4749   -3.0635 C   0  0  0  0  0
   -2.8416    0.5608   -1.1815 C   0  0  0  0  0
    3.4040    0.1857   -2.4027 C   0  0  0  0  0
    1.3940   -3.9398   -3.8106 C   0  0  0  0  0
    0.2570   -3.5001   -4.7189 C   0  0  0  0  0
   -1.0097   -3.1984   -3.9232 C   0  0  0  0  0
   -2.1379   -2.7164   -4.8240 C   0  0  0  0  0
   -1.1692    1.4912    0.7389 N   0  0  0  0  0
    3.9296   -0.9831   -2.2760 O   0  0  0  0  0
    3.8729    1.0708   -3.2122 O   0  0  0  0  0
   -3.7176    1.8644    0.8822 O   0  0  0  0  0
   -2.4203    3.1152   -0.8647 O   0  0  0  0  0
   -3.2816   -2.4391   -4.0210 O   0  0  0  0  0
   -2.6248    1.9104   -0.0767 S   0  0  0  0  0
  1  2  1  0  0  0
  3 11  1  0  0  0
  4 12  1  0  0  0
  5 13  1  0  0  0
  6  8  1  0  0  0
  7 14  1  0  0  0
  9 15  1  0  0  0
 10 16  1  0  0  0
 11 12  1  0  0  0
 13 17  1  0  0  0
 14 22  1  0  0  0
 15 27  1  0  0  0
 17 23  1  0  0  0
 18 19  1  0  0  0
 19 20  1  0  0  0
 20 21  1  0  0  0
 21 27  1  0  0  0
 28 16  1  0  0  0
 28 22  1  0  0  0
  1  3  2  0  0  0
  2  4  2  0  0  0
  5  7  2  0  0  0
  6 13  2  0  0  0
  8 14  2  0  0  0
  9 10  2  0  0  0
 11 15  2  0  0  0
 12 16  2  0  0  0
 17 24  2  0  0  0
 28 25  2  0  0  0
 28 26  2  0  0  0
M  CHG  1  23  -1
M  END
> <rmsd>
0.467709601

$$$$
ZINC08714929


 23 24  0  0  0  0  0  0  0  0999 V2000
    0.8861    2.5206   -2.5539 C   0  0  0  0  0
    1.8537    1.5171   -2.6007 C   0  0  0  0  0
   -0.0943    2.4985   -1.5618 C   0  0  0  0  0
    0.8606    0.4691   -0.6635 C   0  0  0  0  0
   -2.9227   -2.3220   -1.7614 C   0  0  0  0  0
   -3.3851   -1.1766    0.7400 C   0  0  0  0  0
    1.8410    0.4913   -1.6555 C   0  0  0  0  0
   -3.3293   -3.1210   -0.6929 C   0  0  0  0  0
   -0.1071    1.4727   -0.6167 C   0  0  0  0  0
   -2.7472   -0.9503   -1.5792 C   0  0  0  0  0
   -2.9784   -0.3775   -0.3286 C   0  0  0  0  0
   -3.5605   -2.5484    0.5578 C   0  0  0  0  0
    2.8624   -0.5675   -1.7057 C   0  0  0  0  0
   -3.5049   -4.5855   -0.9352 C   0  0  0  0  0
   -2.1394   -0.8609   -3.8767 C   0  0  0  0  0
   -1.1109    1.4496    0.3981 N   0  0  0  0  0
    2.8287   -1.5031   -0.8214 O   0  0  0  0  0
    3.7558   -0.5232   -2.6320 O   0  0  0  0  0
   -3.5990    1.7243    1.0581 O   0  0  0  0  0
   -2.9551    2.0226   -1.3494 O   0  0  0  0  0
   -2.3517   -0.1882   -2.6372 O   0  0  0  0  0
   -2.7656    1.3609   -0.0728 S   0  0  0  0  0
   -4.1189   -3.5933    2.0388 Br  0  0  0  0  0
  1  2  1  0  0  0
  3  9  1  0  0  0
  4  7  1  0  0  0
  5  8  1  0  0  0
  6 12  1  0  0  0
  7 13  1  0  0  0
  9 16  1  0  0  0
 10 11  1  0  0  0
 10 21  1  0  0  0
 12 23  1  0  0  0
 13 17  1  0  0  0
 14  8  1  0  0  0
 15 21  1  0  0  0
 22 11  1  0  0  0
 22 16  1  0  0  0
  1  3  2  0  0  0
  2  7  2  0  0  0
  4  9  2  0  0  0
  5 10  2  0  0  0
  6 11  2  0  0  0
  8 12  2  0  0  0
 13 18  2  0  0  0
 22 19  2  0  0  0
 22 20  2  0  0  0
M  CHG  1  17  -1
M  END
> <rmsd>
0.514179766

$$$$
ZINC19943917


 28 31  0  0  0  0  0  0  0  0999 V2000
   -3.1987   -2.5860    0.6708 C   0  0  0  0  0
   -3.0410   -1.1912    0.4873 C   0  0  0  0  0
   -3.2833   -3.4682   -0.4214 C   0  0  0  0  0
   -2.8518    0.0437   -3.5893 C   0  0  0  0  0
    2.1891    1.2750   -1.9213 C   0  0  0  0  0
    1.5477    2.5093   -1.8179 C   0  0  0  0  0
   -2.7545    1.0282   -2.5896 C   0  0  0  0  0
    0.6380    0.3353   -0.3250 C   0  0  0  0  0
   -2.9642   -0.6482   -0.8133 C   0  0  0  0  0
   -3.0540   -1.5710   -1.8483 C   0  0  0  0  0
   -3.2067   -2.9222   -1.6841 C   0  0  0  0  0
   -3.0027   -1.2619   -3.1783 C   0  0  0  0  0
   -0.0034    1.5697   -0.2216 C   0  0  0  0  0
    1.7342    0.1880   -1.1749 C   0  0  0  0  0
    0.4515    2.6567   -0.9680 C   0  0  0  0  0
   -2.8090    0.6961   -1.2147 C   0  0  0  0  0
   -3.2561   -3.5207   -3.0359 C   0  0  0  0  0
    0.3250    4.7731    0.1092 C   0  0  0  0  0
   -3.1248   -2.4418   -3.9148 N   0  0  0  0  0
   -1.1313    1.7066    0.6601 N   0  0  0  0  0
    2.3869   -1.0687   -1.2806 N   0  0  0  0  0
    3.3708   -1.1799   -2.0513 O   0  0  0  0  0
   -3.3870   -4.7051   -3.2754 O   0  0  0  0  0
    1.9620   -2.0336   -0.6002 O   0  0  0  0  0
   -3.6901    1.7521    0.9841 O   0  0  0  0  0
   -2.6751    3.2588   -0.7478 O   0  0  0  0  0
   -0.1623    3.8704   -0.8814 O   0  0  0  0  0
   -2.6799    1.9864   -0.0392 S   0  0  0  0  0
  1  3  1  0  0  0
  2  9  1  0  0  0
  4 12  1  0  0  0
  5 14  1  0  0  0
  6 15  1  0  0  0
  7 16  1  0  0  0
  8 13  1  0  0  0
  9 10  1  0  0  0
 10 11  1  0  0  0
 11 17  1  0  0  0
 12 19  1  0  0  0
 13 20  1  0  0  0
 14 21  1  0  0  0
 15 27  1  0  0  0
 17 19  1  0  0  0
 18 27  1  0  0  0
 21 22  1  0  0  0
 28 16  1  0  0  0
 28 20  1  0  0  0
  1  2  2  0  0  0
  3 11  2  0  0  0
  4  7  2  0  0  0
  5  6  2  0  0  0
  8 14  2  0  0  0
  9 16  2  0  0  0
 10 12  2  0  0  0
 13 15  2  0  0  0
 17 23  2  0  0  0
 21 24  2  0  0  0
 28 25  2  0  0  0
 28 26  2  0  0  0
M  CHG  2  21   1  22  -1
M  END
> <rmsd>
0.619509757

$$$$
ZINC16923318


 28 30  0  0  0  0  0  0  0  0999 V2000
   -3.5147   -2.4368    0.8702 C   0  0  0  0  0
   -4.3088   -2.8965   -1.3647 C   0  0  0  0  0
   -3.3336   -1.0963    0.5303 C   0  0  0  0  0
   -4.1278   -1.5559   -1.7047 C   0  0  0  0  0
    0.3874   -0.3019    1.6169 C   0  0  0  0  0
    1.3126   -1.3447    1.6625 C   0  0  0  0  0
    1.2860    0.4025   -0.5122 C   0  0  0  0  0
    2.2113   -0.6403   -0.4667 C   0  0  0  0  0
   -4.0023   -3.3370   -0.0772 C   0  0  0  0  0
   -3.6402   -0.6558   -0.7572 C   0  0  0  0  0
    0.3742    0.5718    0.5296 C   0  0  0  0  0
    2.2245   -1.5139    0.6207 C   0  0  0  0  0
   -3.5774    1.7484   -0.1588 C   0  0  0  0  0
   -3.1581    1.1152   -2.4099 C   0  0  0  0  0
    3.1668   -0.8056   -1.5763 C   0  0  0  0  0
   -0.7178    2.5857   -0.5162 C   0  0  0  0  0
   -3.1897    3.0937   -0.7267 C   0  0  0  0  0
   -4.1950   -4.7704    0.2858 C   0  0  0  0  0
   -1.8485    3.5431   -0.1705 C   0  0  0  0  0
   -3.4539    0.7274   -1.1085 N   0  0  0  0  0
   -0.5648    1.6297    0.4838 N   0  0  0  0  0
    3.1201    0.0223   -2.5605 O   0  0  0  0  0
   -3.9676    1.6518    1.0026 O   0  0  0  0  0
   -2.9117    0.4294   -3.3910 O   0  0  0  0  0
    4.0146   -1.7725   -1.5230 O   0  0  0  0  0
   -0.0673    2.6936   -1.5504 O   0  0  0  0  0
    3.1208   -2.5387    0.6830 O   0  0  0  0  0
   -3.0990    2.8661   -2.5120 S   0  0  0  0  0
  1  9  1  0  0  0
  2  4  1  0  0  0
  3 10  1  0  0  0
  5 11  1  0  0  0
  6 12  1  0  0  0
  7  8  1  0  0  0
  8 15  1  0  0  0
 10 20  1  0  0  0
 11 21  1  0  0  0
 12 27  1  0  0  0
 13 20  1  0  0  0
 14 20  1  0  0  0
 14 28  1  0  0  0
 15 22  1  0  0  0
 16 21  1  0  0  0
 17 13  1  0  0  0
 17 19  1  0  0  0
 17 28  1  0  0  0
 18  9  1  0  0  0
 19 16  1  0  0  0
  1  3  2  0  0  0
  2  9  2  0  0  0
  4 10  2  0  0  0
  5  6  2  0  0  0
  7 11  2  0  0  0
  8 12  2  0  0  0
 13 23  2  0  0  0
 14 24  2  0  0  0
 15 25  2  0  0  0
 16 26  2  0  0  0
M  CHG  1  22  -1
M  END
> <rmsd>
0.330434293

$$$$
ZINC16923154


 28 30  0  0  0  0  0  0  0  0999 V2000
   -4.3088   -2.8967   -1.3637 C   0  0  0  0  0
   -4.0026   -3.3369   -0.0760 C   0  0  0  0  0
   -4.1276   -1.5563   -1.7041 C   0  0  0  0  0
    0.3875   -0.3016    1.6172 C   0  0  0  0  0
    1.3127   -1.3444    1.6628 C   0  0  0  0  0
    1.2859    0.4026   -0.5120 C   0  0  0  0  0
   -3.3341   -1.0960    0.5310 C   0  0  0  0  0
    2.2112   -0.6402   -0.4665 C   0  0  0  0  0
   -3.5153   -2.4366    0.8714 C   0  0  0  0  0
   -3.6403   -0.6559   -0.7567 C   0  0  0  0  0
    0.3741    0.5719    0.5298 C   0  0  0  0  0
    2.2246   -1.5137    0.6210 C   0  0  0  0  0
   -3.5775    1.7483   -0.1585 C   0  0  0  0  0
   -3.1583    1.1150   -2.4096 C   0  0  0  0  0
    3.1667   -0.8056   -1.5761 C   0  0  0  0  0
   -0.7179    2.5857   -0.5162 C   0  0  0  0  0
   -3.1899    3.0936   -0.7266 C   0  0  0  0  0
   -3.1880   -2.9070    2.2480 C   0  0  0  0  0
   -1.8487    3.5431   -0.1705 C   0  0  0  0  0
   -3.4540    0.7273   -1.1081 N   0  0  0  0  0
   -0.5649    1.6298    0.4839 N   0  0  0  0  0
    3.1200    0.0222   -2.5604 O   0  0  0  0  0
   -3.9676    1.6519    1.0029 O   0  0  0  0  0
   -2.9119    0.4290   -3.3906 O   0  0  0  0  0
    4.0145   -1.7725   -1.5227 O   0  0  0  0  0
   -0.0675    2.6935   -1.5504 O   0  0  0  0  0
    3.1209   -2.5385    0.6834 O   0  0  0  0  0
   -3.0993    2.8658   -2.5119 S   0  0  0  0  0
  1  3  1  0  0  0
  2  9  1  0  0  0
  4 11  1  0  0  0
  5 12  1  0  0  0
  6  8  1  0  0  0
  7 10  1  0  0  0
  8 15  1  0  0  0
 10 20  1  0  0  0
 11 21  1  0  0  0
 12 27  1  0  0  0
 13 20  1  0  0  0
 14 20  1  0  0  0
 14 28  1  0  0  0
 15 22  1  0  0  0
 16 21  1  0  0  0
 17 13  1  0  0  0
 17 19  1  0  0  0
 17 28  1  0  0  0
 18  9  1  0  0  0
 19 16  1  0  0  0
  1  2  2  0  0  0
  3 10  2  0  0  0
  4  5  2  0  0  0
  6 11  2  0  0  0
  7  9  2  0  0  0
  8 12  2  0  0  0
 13 23  2  0  0  0
 14 24  2  0  0  0
 15 25  2  0  0  0
 16 26  2  0  0  0
M  CHG  1  22  -1
M  END
> <rmsd>
0.330417871

$$$$
ZINC16924881


 28 30  0  0  0  0  0  0  0  0999 V2000
    1.3157   -1.3415    1.6521 C   0  0  0  0  0
    2.2262   -1.5079    0.6086 C   0  0  0  0  0
   -3.3327   -1.0952    0.5283 C   0  0  0  0  0
   -4.1296   -1.5526   -1.7062 C   0  0  0  0  0
    0.3892   -0.2997    1.6097 C   0  0  0  0  0
   -3.5109   -2.4366    0.8665 C   0  0  0  0  0
   -4.3078   -2.8941   -1.3680 C   0  0  0  0  0
    1.2838    0.4095   -0.5195 C   0  0  0  0  0
    2.2102   -0.6325   -0.4772 C   0  0  0  0  0
   -3.6422   -0.6532   -0.7580 C   0  0  0  0  0
    0.3733    0.5759    0.5240 C   0  0  0  0  0
   -3.9984   -3.3360   -0.0817 C   0  0  0  0  0
   -3.5806    1.7499   -0.1553 C   0  0  0  0  0
   -3.1647    1.1213   -2.4083 C   0  0  0  0  0
    3.1720   -0.8083   -1.5778 C   0  0  0  0  0
   -0.7224    2.5906   -0.5162 C   0  0  0  0  0
   -3.1952    3.0966   -0.7214 C   0  0  0  0  0
   -3.8361   -5.0286    1.5812 C   0  0  0  0  0
   -1.8534    3.5463   -0.1668 C   0  0  0  0  0
   -3.4578    0.7309   -1.1071 N   0  0  0  0  0
   -0.5668    1.6329    0.4818 N   0  0  0  0  0
    3.1363    0.0132   -2.5688 O   0  0  0  0  0
   -3.9686    1.6509    1.0065 O   0  0  0  0  0
   -2.9193    0.4375   -3.3911 O   0  0  0  0  0
    4.0169   -1.7780   -1.5132 O   0  0  0  0  0
   -0.0739    2.7010   -1.5514 O   0  0  0  0  0
   -4.1722   -4.6449    0.2485 O   0  0  0  0  0
   -3.1074    2.8724   -2.5073 S   0  0  0  0  0
  1  2  1  0  0  0
  3 10  1  0  0  0
  4  7  1  0  0  0
  5 11  1  0  0  0
  6 12  1  0  0  0
  8  9  1  0  0  0
  9 15  1  0  0  0
 10 20  1  0  0  0
 11 21  1  0  0  0
 12 27  1  0  0  0
 13 20  1  0  0  0
 14 20  1  0  0  0
 14 28  1  0  0  0
 15 22  1  0  0  0
 16 21  1  0  0  0
 17 13  1  0  0  0
 17 19  1  0  0  0
 17 28  1  0  0  0
 18 27  1  0  0  0
 19 16  1  0  0  0
  1  5  2  0  0  0
  2  9  2  0  0  0
  3  6  2  0  0  0
  4 10  2  0  0  0
  7 12  2  0  0  0
  8 11  2  0  0  0
 13 23  2  0  0  0
 14 24  2  0  0  0
 15 25  2  0  0  0
 16 26  2  0  0  0
M  CHG  1  22  -1
M  END
> <rmsd>
0.329640955

$$$$
ZINC06902055


 30 33  0  0  0  0  0  0  0  0999 V2000
   -3.8685    4.4196   -3.2906 C   0  0  0  0  0
   -4.7053    4.6275   -2.1770 C   0  0  0  0  0
   -2.8937    3.4184   -3.2790 C   0  0  0  0  0
   -4.5836    3.8378   -1.0304 C   0  0  0  0  0
    2.5503    2.8134   -1.2399 C   0  0  0  0  0
   -3.2796   -0.9838   -1.6080 C   0  0  0  0  0
   -2.3392   -1.2877    0.5965 C   0  0  0  0  0
    1.5673    3.6743   -0.7524 C   0  0  0  0  0
   -3.6801   -2.3198   -1.6214 C   0  0  0  0  0
   -2.7397   -2.6238    0.5832 C   0  0  0  0  0
    1.1599    0.9152   -0.6914 C   0  0  0  0  0
   -2.7895    2.6460   -2.1386 C   0  0  0  0  0
   -3.6174    2.8508   -1.0377 C   0  0  0  0  0
    2.3466    1.4337   -1.2094 C   0  0  0  0  0
   -2.6092   -0.4677   -0.4990 C   0  0  0  0  0
    0.3804    3.1558   -0.2343 C   0  0  0  0  0
    0.1767    1.7762   -0.2039 C   0  0  0  0  0
   -3.4101   -3.1398   -0.5258 C   0  0  0  0  0
   -1.8571    1.5470   -1.8684 C   0  0  0  0  0
   -3.2800    1.9028    0.0283 C   0  0  0  0  0
    3.3842    0.5256   -1.7242 C   0  0  0  0  0
   -2.1737    0.9862   -0.4845 C   0  0  0  0  0
   -0.6554    4.1012    0.2811 C   0  0  0  0  0
   -4.4839   -4.9040   -1.7051 C   0  0  0  0  0
   -0.9975    1.2435    0.3080 N   0  0  0  0  0
    3.1718   -0.7441   -1.6845 O   0  0  0  0  0
   -0.9740    1.1930   -2.6275 O   0  0  0  0  0
   -3.7890    1.9021    1.1338 O   0  0  0  0  0
    4.4706    1.0303   -2.1971 O   0  0  0  0  0
   -3.8022   -4.4431   -0.5394 O   0  0  0  0  0
  1  2  1  0  0  0
  3 12  1  0  0  0
  4 13  1  0  0  0
  5 14  1  0  0  0
  6 15  1  0  0  0
  7 10  1  0  0  0
  8 16  1  0  0  0
  9 18  1  0  0  0
 11 17  1  0  0  0
 12 19  1  0  0  0
 13 20  1  0  0  0
 14 21  1  0  0  0
 17 25  1  0  0  0
 18 30  1  0  0  0
 21 26  1  0  0  0
 22 15  1  0  0  0
 22 19  1  0  0  0
 22 20  1  0  0  0
 22 25  1  0  0  0
 23 16  1  0  0  0
 24 30  1  0  0  0
  1  3  2  0  0  0
  2  4  2  0  0  0
  5  8  2  0  0  0
  6  9  2  0  0  0
  7 15  2  0  0  0
 10 18  2  0  0  0
 11 14  2  0  0  0
 12 13  2  0  0  0
 16 17  2  0  0  0
 19 27  2  0  0  0
 20 28  2  0  0  0
 21 29  2  0  0  0
M  CHG  1  26  -1
M  END
> <rmsd>
0.588583231

$$$$
ZINC35397457


 28 31  0  0  0  0  0  0  0  0999 V2000
   -3.2646   -2.5831    0.4423 C   0  0  0  0  0
   -3.2258   -1.2069    0.6646 C   0  0  0  0  0
    1.0039    0.7936   -0.3279 C   0  0  0  0  0
   -2.3871   -0.8726   -1.5727 C   0  0  0  0  0
   -0.0194    2.6930   -1.3288 C   0  0  0  0  0
    2.0445    0.9101   -1.2427 C   0  0  0  0  0
   -2.8572   -3.1201   -0.7883 C   0  0  0  0  0
   -2.4312   -2.2543   -1.8128 C   0  0  0  0  0
   -0.0516    1.6980   -0.3650 C   0  0  0  0  0
   -2.7850   -0.3523   -0.3417 C   0  0  0  0  0
    1.9827    1.9402   -2.1673 C   0  0  0  0  0
    3.1614   -0.0493   -1.2013 C   0  0  0  0  0
   -2.9455   -4.6107   -1.0020 C   0  0  0  0  0
   -1.9612   -2.7814   -3.1456 C   0  0  0  0  0
   -2.1370   -5.0968   -2.2033 C   0  0  0  0  0
   -2.4063   -4.2171   -3.4173 C   0  0  0  0  0
    4.5101    1.6000   -4.8892 C   0  0  0  0  0
    4.9035    2.9248   -4.2677 C   0  0  0  0  0
    3.0725    1.4196   -4.4152 C   0  0  0  0  0
    4.2509    2.8578   -2.8918 C   0  0  0  0  0
    0.9741    2.8379   -2.2341 N   0  0  0  0  0
    3.0328    2.0643   -3.0968 N   0  0  0  0  0
   -1.1423    1.6035    0.5675 N   0  0  0  0  0
    3.0766   -1.1278   -1.8991 O   0  0  0  0  0
    4.1841    0.2231   -0.4685 O   0  0  0  0  0
   -3.6851    1.6798    0.9948 O   0  0  0  0  0
   -2.8516    2.0553   -1.3426 O   0  0  0  0  0
   -2.7291    1.3699   -0.0618 S   0  0  0  0  0
  1  2  1  0  0  0
  3  9  1  0  0  0
  4 10  1  0  0  0
  5 21  1  0  0  0
  6 11  1  0  0  0
  6 12  1  0  0  0
  7  8  1  0  0  0
  9 23  1  0  0  0
 11 22  1  0  0  0
 12 24  1  0  0  0
 13  7  1  0  0  0
 13 15  1  0  0  0
 14  8  1  0  0  0
 14 16  1  0  0  0
 15 16  1  0  0  0
 17 18  1  0  0  0
 17 19  1  0  0  0
 18 20  1  0  0  0
 19 22  1  0  0  0
 20 22  1  0  0  0
 28 10  1  0  0  0
 28 23  1  0  0  0
  1  7  2  0  0  0
  2 10  2  0  0  0
  3  6  2  0  0  0
  4  8  2  0  0  0
  5  9  2  0  0  0
 11 21  2  0  0  0
 12 25  2  0  0  0
 28 26  2  0  0  0
 28 27  2  0  0  0
M  CHG  1  24  -1
M  END
> <rmsd>
0.697656929

$$$$
ZINC35397457


 28 31  0  0  0  0  0  0  0  0999 V2000
   -3.5644   -2.5583    0.5531 C   0  0  0  0  0
   -3.3971   -1.1870    0.7433 C   0  0  0  0  0
    0.8685    0.4547   -0.6664 C   0  0  0  0  0
   -2.7428   -0.9498   -1.5667 C   0  0  0  0  0
   -0.0893    2.4171   -1.6089 C   0  0  0  0  0
    1.8269    0.4756   -1.6735 C   0  0  0  0  0
   -3.3148   -3.1420   -0.6982 C   0  0  0  0  0
   -2.9174   -2.3264   -1.7740 C   0  0  0  0  0
   -0.1114    1.4404   -0.6263 C   0  0  0  0  0
   -2.9842   -0.3835   -0.3155 C   0  0  0  0  0
    1.7622    1.4953   -2.6091 C   0  0  0  0  0
    2.8639   -0.5698   -1.7137 C   0  0  0  0  0
   -3.5394   -4.6233   -0.8731 C   0  0  0  0  0
   -2.6143   -2.9065   -3.1330 C   0  0  0  0  0
   -2.8850   -5.1881   -2.1325 C   0  0  0  0  0
   -3.1940   -4.3053   -3.3346 C   0  0  0  0  0
    3.9954    0.9186   -5.5405 C   0  0  0  0  0
    4.5471    2.2153   -4.9836 C   0  0  0  0  0
    2.5974    0.8602   -4.9353 C   0  0  0  0  0
    4.0198    2.2186   -3.5534 C   0  0  0  0  0
    0.8255    2.4702   -2.6028 N   0  0  0  0  0
    2.7294    1.5229   -3.6319 N   0  0  0  0  0
   -1.1163    1.4457    0.4024 N   0  0  0  0  0
    2.6310   -1.6469   -2.3792 O   0  0  0  0  0
    3.9676   -0.3710   -1.0817 O   0  0  0  0  0
   -3.5954    1.7313    1.0556 O   0  0  0  0  0
   -2.9523    2.0087   -1.3544 O   0  0  0  0  0
   -2.7674    1.3321   -0.0764 S   0  0  0  0  0
  1  2  1  0  0  0
  3  9  1  0  0  0
  4 10  1  0  0  0
  5 21  1  0  0  0
  6 11  1  0  0  0
  6 12  1  0  0  0
  7  8  1  0  0  0
  9 23  1  0  0  0
 11 22  1  0  0  0
 12 24  1  0  0  0
 13  7  1  0  0  0
 13 15  1  0  0  0
 14  8  1  0  0  0
 14 16  1  0  0  0
 15 16  1  0  0  0
 17 18  1  0  0  0
 17 19  1  0  0  0
 18 20  1  0  0  0
 19 22  1  0  0  0
 20 22  1  0  0  0
 28 10  1  0  0  0
 28 23  1  0  0  0
  1  7  2  0  0  0
  2 10  2  0  0  0
  3  6  2  0  0  0
  4  8  2  0  0  0
  5  9  2  0  0  0
 11 21  2  0  0  0
 12 25  2  0  0  0
 28 26  2  0  0  0
 28 27  2  0  0  0
M  CHG  1  24  -1
M  END
> <rmsd>
0.515095174

$$$$
ZINC02853419


 23 24  0  0  0  0  0  0  0  0999 V2000
    0.7322    2.4829   -2.6906 C   0  0  0  0  0
   -0.1716    2.4769   -1.6283 C   0  0  0  0  0
    1.5720    1.3885   -2.8980 C   0  0  0  0  0
   -3.7421   -2.5300    0.6100 C   0  0  0  0  0
   -3.5097   -1.1674    0.7963 C   0  0  0  0  0
   -3.0140   -0.9304   -1.5565 C   0  0  0  0  0
    0.6040    0.2823   -0.9807 C   0  0  0  0  0
   -0.2358    1.3767   -0.7733 C   0  0  0  0  0
    1.5078    0.2883   -2.0431 C   0  0  0  0  0
   -3.6104   -3.0929   -0.6595 C   0  0  0  0  0
   -3.1457   -0.3676   -0.2869 C   0  0  0  0  0
   -3.2464   -2.2931   -1.7427 C   0  0  0  0  0
    0.5306   -0.8964   -0.0594 C   0  0  0  0  0
   -5.1810   -4.8204   -1.1119 C   0  0  0  0  0
   -1.1704    1.3921    0.3094 N   0  0  0  0  0
    2.3752   -0.8150   -2.2751 N   0  0  0  0  0
    3.5021   -0.8253   -1.7262 O   0  0  0  0  0
    1.9865   -1.7442   -3.0214 O   0  0  0  0  0
   -3.5948    1.7551    1.1339 O   0  0  0  0  0
   -3.1052    2.0303   -1.3124 O   0  0  0  0  0
   -3.8446   -4.4275   -0.8077 O   0  0  0  0  0
   -2.8536    1.3620   -0.0500 S   0  0  0  0  0
   -3.0584   -3.0231   -3.4817 Br  0  0  0  0  0
  1  2  1  0  0  0
  3  9  1  0  0  0
  4 10  1  0  0  0
  5 11  1  0  0  0
  6 12  1  0  0  0
  7  8  1  0  0  0
  8 15  1  0  0  0
  9 16  1  0  0  0
 10 21  1  0  0  0
 12 23  1  0  0  0
 13  7  1  0  0  0
 14 21  1  0  0  0
 16 17  1  0  0  0
 22 11  1  0  0  0
 22 15  1  0  0  0
  1  3  2  0  0  0
  2  8  2  0  0  0
  4  5  2  0  0  0
  6 11  2  0  0  0
  7  9  2  0  0  0
 10 12  2  0  0  0
 16 18  2  0  0  0
 22 19  2  0  0  0
 22 20  2  0  0  0
M  CHG  2  16   1  17  -1
M  END
> <rmsd>
0.3911753

$$$$
ZINC02853419


 23 24  0  0  0  0  0  0  0  0999 V2000
    0.7318    2.4827   -2.6906 C   0  0  0  0  0
   -0.1720    2.4769   -1.6283 C   0  0  0  0  0
    1.5713    1.3882   -2.8981 C   0  0  0  0  0
   -3.2408   -2.2919   -1.7437 C   0  0  0  0  0
   -3.0127   -0.9287   -1.5565 C   0  0  0  0  0
   -3.5088   -1.1684    0.7958 C   0  0  0  0  0
    0.6031    0.2821   -0.9808 C   0  0  0  0  0
   -0.2364    1.3766   -0.7733 C   0  0  0  0  0
    1.5070    0.2880   -2.0432 C   0  0  0  0  0
   -3.6030   -3.0935   -0.6611 C   0  0  0  0  0
   -3.1467   -0.3669   -0.2869 C   0  0  0  0  0
   -3.7369   -2.5317    0.6087 C   0  0  0  0  0
    0.5295   -0.8967   -0.0595 C   0  0  0  0  0
   -5.1472   -4.8153   -1.2148 C   0  0  0  0  0
   -1.1709    1.3923    0.3094 N   0  0  0  0  0
    2.3740   -0.8156   -2.2754 N   0  0  0  0  0
    3.5010   -0.8262   -1.7266 O   0  0  0  0  0
    1.9851   -1.7447   -3.0217 O   0  0  0  0  0
   -3.5951    1.7558    1.1341 O   0  0  0  0  0
   -3.1056    2.0310   -1.3122 O   0  0  0  0  0
   -3.8188   -4.4218   -0.8776 O   0  0  0  0  0
   -2.8542    1.3625   -0.0499 S   0  0  0  0  0
   -4.2271   -3.5901    2.1027 Br  0  0  0  0  0
  1  2  1  0  0  0
  3  9  1  0  0  0
  4 10  1  0  0  0
  5 11  1  0  0  0
  6 12  1  0  0  0
  7  8  1  0  0  0
  8 15  1  0  0  0
  9 16  1  0  0  0
 10 21  1  0  0  0
 12 23  1  0  0  0
 13  7  1  0  0  0
 14 21  1  0  0  0
 16 17  1  0  0  0
 22 11  1  0  0  0
 22 15  1  0  0  0
  1  3  2  0  0  0
  2  8  2  0  0  0
  4  5  2  0  0  0
  6 11  2  0  0  0
  7  9  2  0  0  0
 10 12  2  0  0  0
 16 18  2  0  0  0
 22 19  2  0  0  0
 22 20  2  0  0  0
M  CHG  2  16   1  17  -1
M  END
> <rmsd>
0.392396957

$$$$
ZINC16926097


 28 30  0  0  0  0  0  0  0  0999 V2000
   -3.3336   -1.0956    0.5307 C   0  0  0  0  0
   -4.1270   -1.5564   -1.7043 C   0  0  0  0  0
    0.3872   -0.3021    1.6174 C   0  0  0  0  0
   -3.5139   -2.4362    0.8711 C   0  0  0  0  0
   -4.3072   -2.8970   -1.3640 C   0  0  0  0  0
    1.3122   -1.3450    1.6630 C   0  0  0  0  0
    1.2860    0.4022   -0.5118 C   0  0  0  0  0
    2.2111   -0.6408   -0.4662 C   0  0  0  0  0
   -3.6403   -0.6557   -0.7570 C   0  0  0  0  0
    0.3740    0.5715    0.5300 C   0  0  0  0  0
   -4.0005   -3.3370   -0.0763 C   0  0  0  0  0
    2.2242   -1.5144    0.6212 C   0  0  0  0  0
   -3.5772    1.7485   -0.1585 C   0  0  0  0  0
   -3.1580    1.1152   -2.4097 C   0  0  0  0  0
    3.1666   -0.8062   -1.5758 C   0  0  0  0  0
   -0.7177    2.5855   -0.5160 C   0  0  0  0  0
   -3.1895    3.0937   -0.7265 C   0  0  0  0  0
   -1.8483    3.5431   -0.1704 C   0  0  0  0  0
   -3.4539    0.7275   -1.1083 N   0  0  0  0  0
   -0.5648    1.6295    0.4842 N   0  0  0  0  0
    3.1201    0.0217   -2.5600 O   0  0  0  0  0
   -3.9676    1.6519    1.0028 O   0  0  0  0  0
   -2.9116    0.4294   -3.3907 O   0  0  0  0  0
    4.0144   -1.7732   -1.5223 O   0  0  0  0  0
   -0.0671    2.6933   -1.5501 O   0  0  0  0  0
   -4.1763   -4.6450    0.2561 O   0  0  0  0  0
    3.1204   -2.5392    0.6836 O   0  0  0  0  0
   -3.0988    2.8661   -2.5117 S   0  0  0  0  0
  1  4  1  0  0  0
  2  9  1  0  0  0
  3 10  1  0  0  0
  5 11  1  0  0  0
  6 12  1  0  0  0
  7  8  1  0  0  0
  8 15  1  0  0  0
  9 19  1  0  0  0
 10 20  1  0  0  0
 11 26  1  0  0  0
 12 27  1  0  0  0
 13 19  1  0  0  0
 14 19  1  0  0  0
 14 28  1  0  0  0
 15 21  1  0  0  0
 16 20  1  0  0  0
 17 13  1  0  0  0
 17 18  1  0  0  0
 17 28  1  0  0  0
 18 16  1  0  0  0
  1  9  2  0  0  0
  2  5  2  0  0  0
  3  6  2  0  0  0
  4 11  2  0  0  0
  7 10  2  0  0  0
  8 12  2  0  0  0
 13 22  2  0  0  0
 14 23  2  0  0  0
 15 24  2  0  0  0
 16 25  2  0  0  0
M  CHG  1  21  -1
M  END
> <rmsd>
0.330805629

$$$$
ZINC05614321


 26 27  0  0  0  0  0  0  0  0999 V2000
   -3.4243   -2.5663    0.4987 C   0  0  0  0  0
   -2.6563   -2.2618   -1.7717 C   0  0  0  0  0
   -3.3358   -1.1909    0.7132 C   0  0  0  0  0
   -2.5679   -0.8863   -1.5571 C   0  0  0  0  0
    0.3971    0.4407   -0.9654 C   0  0  0  0  0
    1.4105    2.8981   -1.8123 C   0  0  0  0  0
   -3.0845   -3.1018   -0.7437 C   0  0  0  0  0
   -0.1236    1.6261   -0.4464 C   0  0  0  0  0
    1.9312    1.7127   -2.3314 C   0  0  0  0  0
    0.3830    2.8548   -0.8699 C   0  0  0  0  0
   -2.9077   -0.3509   -0.3148 C   0  0  0  0  0
    1.4246    0.4840   -1.9079 C   0  0  0  0  0
   -3.1768   -4.5724   -0.9727 C   0  0  0  0  0
    0.5106    4.5472    0.7960 C   0  0  0  0  0
   -1.1828    1.5651    0.5245 N   0  0  0  0  0
    2.9789    1.7901   -3.2906 N   0  0  0  0  0
    4.1668    1.7952   -2.8904 O   0  0  0  0  0
    3.3922   -1.1163   -1.9469 O   0  0  0  0  0
    2.6828    1.8504   -4.5071 O   0  0  0  0  0
   -3.7060    1.7109    1.0408 O   0  0  0  0  0
   -2.9462    2.0528   -1.3268 O   0  0  0  0  0
    1.1220   -2.0667   -2.0488 O   0  0  0  0  0
    2.0187   -0.8437   -3.9884 O   0  0  0  0  0
   -0.1130    4.0239   -0.3746 O   0  0  0  0  0
   -2.7965    1.3708   -0.0470 S   0  0  0  0  0
    2.0470   -1.0304   -2.5313 S   0  0  0  0  0
  1  7  1  0  0  0
  2  4  1  0  0  0
  3 11  1  0  0  0
  5  8  1  0  0  0
  6 10  1  0  0  0
  8 15  1  0  0  0
  9 12  1  0  0  0
  9 16  1  0  0  0
 10 24  1  0  0  0
 13  7  1  0  0  0
 14 24  1  0  0  0
 16 17  1  0  0  0
 25 11  1  0  0  0
 25 15  1  0  0  0
 26 12  1  0  0  0
 26 18  1  0  0  0
  1  3  2  0  0  0
  2  7  2  0  0  0
  4 11  2  0  0  0
  5 12  2  0  0  0
  6  9  2  0  0  0
  8 10  2  0  0  0
 16 19  2  0  0  0
 25 20  2  0  0  0
 25 21  2  0  0  0
 26 22  2  0  0  0
 26 23  2  0  0  0
M  CHG  3  16   1  17  -1  18  -1
M  END
> <rmsd>
0.566847444

$$$$
ZINC16923437


 28 30  0  0  0  0  0  0  0  0999 V2000
   -3.3959   -2.4441    0.7169 C   0  0  0  0  0
   -4.2912   -2.8054   -1.4978 C   0  0  0  0  0
   -3.3051   -1.0767    0.4571 C   0  0  0  0  0
   -4.2005   -1.4379   -1.7575 C   0  0  0  0  0
    2.2743   -1.1742    0.1950 C   0  0  0  0  0
    1.4229   -1.1351    1.2992 C   0  0  0  0  0
    1.1553    0.7540   -0.7361 C   0  0  0  0  0
   -3.8890   -3.3085   -0.2606 C   0  0  0  0  0
   -3.7074   -0.5736   -0.7801 C   0  0  0  0  0
    0.3040    0.7932    0.3682 C   0  0  0  0  0
    2.1405   -0.2296   -0.8227 C   0  0  0  0  0
    0.4378   -0.1515    1.3858 C   0  0  0  0  0
   -3.7366    1.7877   -0.0280 C   0  0  0  0  0
   -3.4140    1.3225   -2.3353 C   0  0  0  0  0
   -0.9500    2.8048   -0.4820 C   0  0  0  0  0
   -3.4531    3.1858   -0.5256 C   0  0  0  0  0
   -3.9853   -4.7705    0.0166 C   0  0  0  0  0
   -2.1078    3.6736   -0.0136 C   0  0  0  0  0
   -3.6142    0.8373   -1.0485 N   0  0  0  0  0
   -0.6902    1.7975    0.4429 N   0  0  0  0  0
    3.0082   -0.2693   -1.9461 N   0  0  0  0  0
    3.8880   -1.1620   -2.0035 O   0  0  0  0  0
   -4.0543    1.5962    1.1436 O   0  0  0  0  0
   -3.1884    0.7149   -3.3715 O   0  0  0  0  0
   -0.3662    3.0140   -1.5402 O   0  0  0  0  0
    2.8710    0.5892   -2.8509 O   0  0  0  0  0
   -0.3838   -0.1306    2.4731 O   0  0  0  0  0
   -3.4528    3.0769   -2.3244 S   0  0  0  0  0
  1  8  1  0  0  0
  2  4  1  0  0  0
  3  9  1  0  0  0
  5 11  1  0  0  0
  6 12  1  0  0  0
  7 10  1  0  0  0
  9 19  1  0  0  0
 10 20  1  0  0  0
 11 21  1  0  0  0
 12 27  1  0  0  0
 13 19  1  0  0  0
 14 19  1  0  0  0
 14 28  1  0  0  0
 15 20  1  0  0  0
 16 13  1  0  0  0
 16 18  1  0  0  0
 16 28  1  0  0  0
 17  8  1  0  0  0
 18 15  1  0  0  0
 21 22  1  0  0  0
  1  3  2  0  0  0
  2  8  2  0  0  0
  4  9  2  0  0  0
  5  6  2  0  0  0
  7 11  2  0  0  0
 10 12  2  0  0  0
 13 23  2  0  0  0
 14 24  2  0  0  0
 15 25  2  0  0  0
 21 26  2  0  0  0
M  CHG  2  21   1  22  -1
M  END
> <rmsd>
0.400506109

$$$$
ZINC16923277


 28 30  0  0  0  0  0  0  0  0999 V2000
   -4.2913   -2.8049   -1.4979 C   0  0  0  0  0
   -3.8894   -3.3079   -0.2605 C   0  0  0  0  0
   -4.2002   -1.4375   -1.7579 C   0  0  0  0  0
    2.2743   -1.1740    0.1947 C   0  0  0  0  0
    1.4229   -1.1349    1.2989 C   0  0  0  0  0
   -3.3056   -1.0761    0.4571 C   0  0  0  0  0
    1.1554    0.7543   -0.7363 C   0  0  0  0  0
   -3.3967   -2.4435    0.7170 C   0  0  0  0  0
   -3.7074   -0.5731   -0.7803 C   0  0  0  0  0
    0.3041    0.7935    0.3680 C   0  0  0  0  0
    2.1405   -0.2294   -0.8229 C   0  0  0  0  0
    0.4379   -0.1513    1.3856 C   0  0  0  0  0
   -3.7365    1.7881   -0.0281 C   0  0  0  0  0
   -3.4139    1.3231   -2.3355 C   0  0  0  0  0
   -0.9498    2.8051   -0.4821 C   0  0  0  0  0
   -3.4529    3.1862   -0.5257 C   0  0  0  0  0
   -2.9672   -2.9812    2.0399 C   0  0  0  0  0
   -2.1076    3.6740   -0.0136 C   0  0  0  0  0
   -3.6142    0.8378   -1.0486 N   0  0  0  0  0
   -0.6901    1.7978    0.4427 N   0  0  0  0  0
    3.0082   -0.2690   -1.9463 N   0  0  0  0  0
    3.8880   -1.1617   -2.0037 O   0  0  0  0  0
   -4.0541    1.5966    1.1435 O   0  0  0  0  0
   -3.1883    0.7155   -3.3716 O   0  0  0  0  0
   -0.3660    3.0144   -1.5403 O   0  0  0  0  0
    2.8710    0.5895   -2.8511 O   0  0  0  0  0
   -0.3837   -0.1304    2.4728 O   0  0  0  0  0
   -3.4526    3.0775   -2.3244 S   0  0  0  0  0
  1  3  1  0  0  0
  2  8  1  0  0  0
  4 11  1  0  0  0
  5 12  1  0  0  0
  6  9  1  0  0  0
  7 10  1  0  0  0
  9 19  1  0  0  0
 10 20  1  0  0  0
 11 21  1  0  0  0
 12 27  1  0  0  0
 13 19  1  0  0  0
 14 19  1  0  0  0
 14 28  1  0  0  0
 15 20  1  0  0  0
 16 13  1  0  0  0
 16 18  1  0  0  0
 16 28  1  0  0  0
 17  8  1  0  0  0
 18 15  1  0  0  0
 21 22  1  0  0  0
  1  2  2  0  0  0
  3  9  2  0  0  0
  4  5  2  0  0  0
  6  8  2  0  0  0
  7 11  2  0  0  0
 10 12  2  0  0  0
 13 23  2  0  0  0
 14 24  2  0  0  0
 15 25  2  0  0  0
 21 26  2  0  0  0
M  CHG  2  21   1  22  -1
M  END
> <rmsd>
0.400670171

$$$$
ZINC16923277


 28 30  0  0  0  0  0  0  0  0999 V2000
   -3.3952   -2.4429    0.7165 C   0  0  0  0  0
   -3.8874   -3.3078   -0.2607 C   0  0  0  0  0
   -3.3055   -1.0754    0.4566 C   0  0  0  0  0
    2.2736   -1.1746    0.1943 C   0  0  0  0  0
    1.4222   -1.1357    1.2985 C   0  0  0  0  0
   -4.2000   -1.4378   -1.7582 C   0  0  0  0  0
    1.1549    0.7539   -0.7363 C   0  0  0  0  0
   -4.2899   -2.8053   -1.4981 C   0  0  0  0  0
   -3.7080   -0.5729   -0.7808 C   0  0  0  0  0
    0.3036    0.7930    0.3679 C   0  0  0  0  0
    2.1400   -0.2298   -0.8231 C   0  0  0  0  0
    0.4373   -0.1519    1.3853 C   0  0  0  0  0
   -3.7368    1.7881   -0.0283 C   0  0  0  0  0
   -3.4142    1.3234   -2.3357 C   0  0  0  0  0
   -0.9500    2.8050   -0.4820 C   0  0  0  0  0
   -3.4531    3.1863   -0.5256 C   0  0  0  0  0
   -4.8160   -3.7300   -2.5430 C   0  0  0  0  0
   -2.1077    3.6738   -0.0134 C   0  0  0  0  0
   -3.6145    0.8380   -1.0489 N   0  0  0  0  0
   -0.6905    1.7975    0.4427 N   0  0  0  0  0
    3.0078   -0.2694   -1.9465 N   0  0  0  0  0
    3.8875   -1.1622   -2.0040 O   0  0  0  0  0
   -4.0545    1.5965    1.1433 O   0  0  0  0  0
   -3.1886    0.7160   -3.3719 O   0  0  0  0  0
   -0.3662    3.0143   -1.5401 O   0  0  0  0  0
    2.8707    0.5893   -2.8511 O   0  0  0  0  0
   -0.3844   -0.1311    2.4725 O   0  0  0  0  0
   -3.4527    3.0778   -2.3243 S   0  0  0  0  0
  1  3  1  0  0  0
  2  8  1  0  0  0
  4 11  1  0  0  0
  5 12  1  0  0  0
  6  9  1  0  0  0
  7 10  1  0  0  0
  9 19  1  0  0  0
 10 20  1  0  0  0
 11 21  1  0  0  0
 12 27  1  0  0  0
 13 19  1  0  0  0
 14 19  1  0  0  0
 14 28  1  0  0  0
 15 20  1  0  0  0
 16 13  1  0  0  0
 16 18  1  0  0  0
 16 28  1  0  0  0
 17  8  1  0  0  0
 18 15  1  0  0  0
 21 22  1  0  0  0
  1  2  2  0  0  0
  3  9  2  0  0  0
  4  5  2  0  0  0
  6  8  2  0  0  0
  7 11  2  0  0  0
 10 12  2  0  0  0
 13 23  2  0  0  0
 14 24  2  0  0  0
 15 25  2  0  0  0
 21 26  2  0  0  0
M  CHG  2  21   1  22  -1
M  END
> <rmsd>
0.400617629

$$$$
ZINC32962196


 28 30  0  0  0  0  0  0  0  0999 V2000
   -3.2456   -2.5879    0.4344 C   0  0  0  0  0
   -2.8525   -3.1012   -0.8015 C   0  0  0  0  0
    1.0213    2.8840   -2.1891 C   0  0  0  0  0
   -0.0381    2.7669   -1.2895 C   0  0  0  0  0
   -3.2081   -1.2124    0.6622 C   0  0  0  0  0
    0.9954    0.8064   -0.3275 C   0  0  0  0  0
   -2.3842   -0.8632   -1.5819 C   0  0  0  0  0
    2.0548    0.9234   -1.2272 C   0  0  0  0  0
   -2.4218   -2.2388   -1.8098 C   0  0  0  0  0
    2.0678    1.9622   -2.1580 C   0  0  0  0  0
   -0.0512    1.7281   -0.3587 C   0  0  0  0  0
   -2.7773   -0.3499   -0.3460 C   0  0  0  0  0
    3.1488   -0.0645   -1.1730 C   0  0  0  0  0
    2.8217    4.5359   -5.1981 C   0  0  0  0  0
    4.0965    4.8497   -4.4121 C   0  0  0  0  0
    2.8900    3.2673   -6.0510 C   0  0  0  0  0
    4.0882    4.3906   -2.9542 C   0  0  0  0  0
    2.2743    2.0230   -5.4112 C   0  0  0  0  0
    4.3126    2.8931   -2.7570 C   0  0  0  0  0
    3.1394    1.3642   -4.3392 C   0  0  0  0  0
   -2.0001   -2.7887   -3.1306 C   0  0  0  0  0
    3.1208    2.0971   -3.0689 N   0  0  0  0  0
   -1.1359    1.6086    0.5618 N   0  0  0  0  0
    3.0528   -1.1306   -1.8864 O   0  0  0  0  0
    4.1592    0.1754   -0.4140 O   0  0  0  0  0
   -3.6867    1.6729    0.9984 O   0  0  0  0  0
   -2.8582    2.0606   -1.3388 O   0  0  0  0  0
   -2.7297    1.3955   -0.0565 S   0  0  0  0  0
  1  5  1  0  0  0
  2  9  1  0  0  0
  3 10  1  0  0  0
  4 11  1  0  0  0
  6  8  1  0  0  0
  7 12  1  0  0  0
  8 13  1  0  0  0
 10 22  1  0  0  0
 11 23  1  0  0  0
 13 24  1  0  0  0
 14 15  1  0  0  0
 14 16  1  0  0  0
 15 17  1  0  0  0
 16 18  1  0  0  0
 17 19  1  0  0  0
 18 20  1  0  0  0
 19 22  1  0  0  0
 20 22  1  0  0  0
 21  9  1  0  0  0
 28 12  1  0  0  0
 28 23  1  0  0  0
  1  2  2  0  0  0
  3  4  2  0  0  0
  5 12  2  0  0  0
  6 11  2  0  0  0
  7  9  2  0  0  0
  8 10  2  0  0  0
 13 25  2  0  0  0
 28 26  2  0  0  0
 28 27  2  0  0  0
M  CHG  1  24  -1
M  END
> <rmsd>
0.707063496

$$$$
ZINC32962196


 28 30  0  0  0  0  0  0  0  0999 V2000
   -3.5411   -2.5654    0.5406 C   0  0  0  0  0
   -3.3069   -3.1220   -0.7168 C   0  0  0  0  0
    0.8691    2.5244   -2.5700 C   0  0  0  0  0
   -0.1068    2.5011   -1.5737 C   0  0  0  0  0
   -3.3762   -1.1946    0.7382 C   0  0  0  0  0
    0.8584    0.4765   -0.6756 C   0  0  0  0  0
   -2.7430   -0.9366   -1.5789 C   0  0  0  0  0
    1.8343    0.4997   -1.6720 C   0  0  0  0  0
   -2.9079   -2.3076   -1.7766 C   0  0  0  0  0
    1.8396    1.5237   -2.6192 C   0  0  0  0  0
   -0.1122    1.4772   -0.6265 C   0  0  0  0  0
   -2.9772   -0.3801   -0.3215 C   0  0  0  0  0
    2.8490   -0.5703   -1.7014 C   0  0  0  0  0
    2.5000    3.9956   -5.7637 C   0  0  0  0  0
    3.8636    4.2172   -5.1057 C   0  0  0  0  0
    2.3896    2.7160   -6.5954 C   0  0  0  0  0
    3.9572    3.7767   -3.6450 C   0  0  0  0  0
    1.7428    1.5313   -5.8780 C   0  0  0  0  0
    4.0830    2.2686   -3.4416 C   0  0  0  0  0
    2.6516    0.8187   -4.8790 C   0  0  0  0  0
   -2.6561   -2.9038   -3.1204 C   0  0  0  0  0
    2.8094    1.5651   -3.6265 N   0  0  0  0  0
   -1.1114    1.4536    0.3930 N   0  0  0  0  0
    2.6043   -1.6336   -2.3828 O   0  0  0  0  0
    3.9419   -0.4020   -1.0443 O   0  0  0  0  0
   -3.5971    1.7230    1.0636 O   0  0  0  0  0
   -2.9650    2.0179   -1.3473 O   0  0  0  0  0
   -2.7680    1.3593   -0.0703 S   0  0  0  0  0
  1  5  1  0  0  0
  2  9  1  0  0  0
  3 10  1  0  0  0
  4 11  1  0  0  0
  6  8  1  0  0  0
  7 12  1  0  0  0
  8 13  1  0  0  0
 10 22  1  0  0  0
 11 23  1  0  0  0
 13 24  1  0  0  0
 14 15  1  0  0  0
 14 16  1  0  0  0
 15 17  1  0  0  0
 16 18  1  0  0  0
 17 19  1  0  0  0
 18 20  1  0  0  0
 19 22  1  0  0  0
 20 22  1  0  0  0
 21  9  1  0  0  0
 28 12  1  0  0  0
 28 23  1  0  0  0
  1  2  2  0  0  0
  3  4  2  0  0  0
  5 12  2  0  0  0
  6 11  2  0  0  0
  7  9  2  0  0  0
  8 10  2  0  0  0
 13 25  2  0  0  0
 28 26  2  0  0  0
 28 27  2  0  0  0
M  CHG  1  24  -1
M  END
> <rmsd>
0.525926769

$$$$
ZINC32962196


 28 30  0  0  0  0  0  0  0  0999 V2000
   -2.9075   -2.3080   -1.7769 C   0  0  0  0  0
   -3.3064   -3.1226   -0.7173 C   0  0  0  0  0
    0.8687    2.5235   -2.5713 C   0  0  0  0  0
   -0.1070    2.5003   -1.5749 C   0  0  0  0  0
   -2.7428   -0.9370   -1.5790 C   0  0  0  0  0
    0.8585    0.4761   -0.6763 C   0  0  0  0  0
   -3.3759   -1.1955    0.7382 C   0  0  0  0  0
    1.8342    0.4992   -1.6728 C   0  0  0  0  0
   -3.5406   -2.5663    0.5402 C   0  0  0  0  0
    1.8393    1.5229   -2.6204 C   0  0  0  0  0
   -0.1122    1.4767   -0.6274 C   0  0  0  0  0
   -2.9769   -0.3808   -0.3215 C   0  0  0  0  0
    2.8491   -0.5708   -1.7020 C   0  0  0  0  0
    2.4991    3.9939   -5.7657 C   0  0  0  0  0
    3.8627    4.2158   -5.1079 C   0  0  0  0  0
    2.3887    2.7140   -6.5970 C   0  0  0  0  0
    3.9565    3.7758   -3.6471 C   0  0  0  0  0
    1.7421    1.5294   -5.8792 C   0  0  0  0  0
    4.0826    2.2677   -3.4433 C   0  0  0  0  0
    2.6511    0.8172   -4.8801 C   0  0  0  0  0
   -3.9687   -3.4380    1.6724 C   0  0  0  0  0
    2.8089    1.5641   -3.6278 N   0  0  0  0  0
   -1.1113    1.4534    0.3923 N   0  0  0  0  0
    2.6044   -1.6343   -2.3831 O   0  0  0  0  0
    3.9421   -0.4021   -1.0451 O   0  0  0  0  0
   -3.5969    1.7227    1.0632 O   0  0  0  0  0
   -2.9652    2.0169   -1.3479 O   0  0  0  0  0
   -2.7679    1.3588   -0.0708 S   0  0  0  0  0
  1  5  1  0  0  0
  2  9  1  0  0  0
  3 10  1  0  0  0
  4 11  1  0  0  0
  6  8  1  0  0  0
  7 12  1  0  0  0
  8 13  1  0  0  0
 10 22  1  0  0  0
 11 23  1  0  0  0
 13 24  1  0  0  0
 14 15  1  0  0  0
 14 16  1  0  0  0
 15 17  1  0  0  0
 16 18  1  0  0  0
 17 19  1  0  0  0
 18 20  1  0  0  0
 19 22  1  0  0  0
 20 22  1  0  0  0
 21  9  1  0  0  0
 28 12  1  0  0  0
 28 23  1  0  0  0
  1  2  2  0  0  0
  3  4  2  0  0  0
  5 12  2  0  0  0
  6 11  2  0  0  0
  7  9  2  0  0  0
  8 10  2  0  0  0
 13 25  2  0  0  0
 28 26  2  0  0  0
 28 27  2  0  0  0
M  CHG  1  24  -1
M  END
> <rmsd>
0.525918365

$$$$
ZINC32962196


 28 30  0  0  0  0  0  0  0  0999 V2000
   -2.4214   -2.2391   -1.8101 C   0  0  0  0  0
   -2.8519   -3.1017   -0.8021 C   0  0  0  0  0
    1.0210    2.8832   -2.1906 C   0  0  0  0  0
   -0.0383    2.7663   -1.2908 C   0  0  0  0  0
   -2.3840   -0.8635   -1.5820 C   0  0  0  0  0
    0.9955    0.8062   -0.3283 C   0  0  0  0  0
   -3.2075   -1.2132    0.6622 C   0  0  0  0  0
    2.0549    0.9231   -1.2282 C   0  0  0  0  0
   -3.2449   -2.5888    0.4340 C   0  0  0  0  0
    2.0676    1.9616   -2.1594 C   0  0  0  0  0
   -0.0511    1.7278   -0.3596 C   0  0  0  0  0
   -2.7771   -0.3505   -0.3459 C   0  0  0  0  0
    3.1489   -0.0647   -1.1738 C   0  0  0  0  0
    2.8208    4.5344   -5.2003 C   0  0  0  0  0
    4.0956    4.8486   -4.4146 C   0  0  0  0  0
    2.8891    3.2656   -6.0528 C   0  0  0  0  0
    4.0876    4.3899   -2.9565 C   0  0  0  0  0
    2.2736    2.0214   -5.4125 C   0  0  0  0  0
    4.3122    2.8925   -2.7589 C   0  0  0  0  0
    3.1389    1.3630   -4.3405 C   0  0  0  0  0
   -3.7066   -3.5119    1.5109 C   0  0  0  0  0
    3.1204    2.0963   -3.0704 N   0  0  0  0  0
   -1.1357    1.6084    0.5611 N   0  0  0  0  0
    3.0529   -1.1310   -1.8870 O   0  0  0  0  0
    4.1595    0.1755   -0.4151 O   0  0  0  0  0
   -3.6864    1.6726    0.9980 O   0  0  0  0  0
   -2.8583    2.0597   -1.3394 O   0  0  0  0  0
   -2.7296    1.3949   -0.0569 S   0  0  0  0  0
  1  5  1  0  0  0
  2  9  1  0  0  0
  3 10  1  0  0  0
  4 11  1  0  0  0
  6  8  1  0  0  0
  7 12  1  0  0  0
  8 13  1  0  0  0
 10 22  1  0  0  0
 11 23  1  0  0  0
 13 24  1  0  0  0
 14 15  1  0  0  0
 14 16  1  0  0  0
 15 17  1  0  0  0
 16 18  1  0  0  0
 17 19  1  0  0  0
 18 20  1  0  0  0
 19 22  1  0  0  0
 20 22  1  0  0  0
 21  9  1  0  0  0
 28 12  1  0  0  0
 28 23  1  0  0  0
  1  2  2  0  0  0
  3  4  2  0  0  0
  5 12  2  0  0  0
  6 11  2  0  0  0
  7  9  2  0  0  0
  8 10  2  0  0  0
 13 25  2  0  0  0
 28 26  2  0  0  0
 28 27  2  0  0  0
M  CHG  1  24  -1
M  END
> <rmsd>
0.707108796

$$$$
ZINC32962171


 28 30  0  0  0  0  0  0  0  0999 V2000
   -3.5403   -2.5666    0.5395 C   0  0  0  0  0
   -2.9067   -2.3075   -1.7775 C   0  0  0  0  0
    0.8688    2.5236   -2.5711 C   0  0  0  0  0
   -0.1070    2.5004   -1.5747 C   0  0  0  0  0
   -3.3759   -1.1958    0.7377 C   0  0  0  0  0
   -2.7424   -0.9366   -1.5793 C   0  0  0  0  0
    0.8584    0.4762   -0.6762 C   0  0  0  0  0
    1.8343    0.4993   -1.6727 C   0  0  0  0  0
   -3.3056   -3.1226   -0.7182 C   0  0  0  0  0
    1.8394    1.5231   -2.6202 C   0  0  0  0  0
   -0.1123    1.4768   -0.6273 C   0  0  0  0  0
   -2.9770   -0.3807   -0.3216 C   0  0  0  0  0
    2.8491   -0.5707   -1.7019 C   0  0  0  0  0
    2.4993    3.9943   -5.7653 C   0  0  0  0  0
    3.8629    4.2162   -5.1074 C   0  0  0  0  0
    2.3890    2.7145   -6.5967 C   0  0  0  0  0
    3.9567    3.7760   -3.6467 C   0  0  0  0  0
    1.7423    1.5298   -5.8790 C   0  0  0  0  0
    4.0827    2.2679   -3.4429 C   0  0  0  0  0
    2.6513    0.8176   -4.8799 C   0  0  0  0  0
   -3.4791   -4.5884   -0.9300 C   0  0  0  0  0
    2.8091    1.5643   -3.6275 N   0  0  0  0  0
   -1.1114    1.4534    0.3923 N   0  0  0  0  0
    2.6044   -1.6342   -2.3831 O   0  0  0  0  0
    3.9421   -0.4020   -1.0450 O   0  0  0  0  0
   -3.5970    1.7226    1.0631 O   0  0  0  0  0
   -2.9652    2.0170   -1.3480 O   0  0  0  0  0
   -2.7680    1.3588   -0.0709 S   0  0  0  0  0
  1  9  1  0  0  0
  2  6  1  0  0  0
  3 10  1  0  0  0
  4 11  1  0  0  0
  5 12  1  0  0  0
  7  8  1  0  0  0
  8 13  1  0  0  0
 10 22  1  0  0  0
 11 23  1  0  0  0
 13 24  1  0  0  0
 14 15  1  0  0  0
 14 16  1  0  0  0
 15 17  1  0  0  0
 16 18  1  0  0  0
 17 19  1  0  0  0
 18 20  1  0  0  0
 19 22  1  0  0  0
 20 22  1  0  0  0
 21  9  1  0  0  0
 28 12  1  0  0  0
 28 23  1  0  0  0
  1  5  2  0  0  0
  2  9  2  0  0  0
  3  4  2  0  0  0
  6 12  2  0  0  0
  7 11  2  0  0  0
  8 10  2  0  0  0
 13 25  2  0  0  0
 28 26  2  0  0  0
 28 27  2  0  0  0
M  CHG  1  24  -1
M  END
> <rmsd>
0.526042402

$$$$
ZINC32962171


 28 30  0  0  0  0  0  0  0  0999 V2000
   -3.2445   -2.5890    0.4333 C   0  0  0  0  0
   -2.4206   -2.2387   -1.8106 C   0  0  0  0  0
    1.0211    2.8833   -2.1903 C   0  0  0  0  0
   -0.0383    2.7664   -1.2906 C   0  0  0  0  0
   -3.2075   -1.2136    0.6617 C   0  0  0  0  0
   -2.3836   -0.8631   -1.5823 C   0  0  0  0  0
    0.9955    0.8062   -0.3282 C   0  0  0  0  0
    2.0549    0.9231   -1.2280 C   0  0  0  0  0
   -2.8510   -3.1017   -0.8029 C   0  0  0  0  0
    2.0677    1.9617   -2.1591 C   0  0  0  0  0
   -0.0512    1.7278   -0.3595 C   0  0  0  0  0
   -2.7771   -0.3505   -0.3461 C   0  0  0  0  0
    3.1489   -0.0646   -1.1737 C   0  0  0  0  0
    2.8210    4.5348   -5.1999 C   0  0  0  0  0
    4.0958    4.8489   -4.4141 C   0  0  0  0  0
    2.8893    3.2660   -6.0525 C   0  0  0  0  0
    4.0877    4.3901   -2.9560 C   0  0  0  0  0
    2.2738    2.0218   -5.4123 C   0  0  0  0  0
    4.3123    2.8927   -2.7585 C   0  0  0  0  0
    3.1391    1.3633   -4.3402 C   0  0  0  0  0
   -2.8884   -4.5723   -1.0467 C   0  0  0  0  0
    3.1206    2.0964   -3.0702 N   0  0  0  0  0
   -1.1358    1.6084    0.5611 N   0  0  0  0  0
    3.0530   -1.1309   -1.8869 O   0  0  0  0  0
    4.1594    0.1755   -0.4149 O   0  0  0  0  0
   -3.6865    1.6725    0.9979 O   0  0  0  0  0
   -2.8583    2.0597   -1.3394 O   0  0  0  0  0
   -2.7296    1.3949   -0.0570 S   0  0  0  0  0
  1  9  1  0  0  0
  2  6  1  0  0  0
  3 10  1  0  0  0
  4 11  1  0  0  0
  5 12  1  0  0  0
  7  8  1  0  0  0
  8 13  1  0  0  0
 10 22  1  0  0  0
 11 23  1  0  0  0
 13 24  1  0  0  0
 14 15  1  0  0  0
 14 16  1  0  0  0
 15 17  1  0  0  0
 16 18  1  0  0  0
 17 19  1  0  0  0
 18 20  1  0  0  0
 19 22  1  0  0  0
 20 22  1  0  0  0
 21  9  1  0  0  0
 28 12  1  0  0  0
 28 23  1  0  0  0
  1  5  2  0  0  0
  2  9  2  0  0  0
  3  4  2  0  0  0
  6 12  2  0  0  0
  7 11  2  0  0  0
  8 10  2  0  0  0
 13 25  2  0  0  0
 28 26  2  0  0  0
 28 27  2  0  0  0
M  CHG  1  24  -1
M  END
> <rmsd>
0.707181454

$$$$
ZINC33253447


 28 30  0  0  0  0  0  0  0  0999 V2000
    0.8686    2.5244   -2.5712 C   0  0  0  0  0
   -0.1072    2.5011   -1.5748 C   0  0  0  0  0
    0.8582    0.4767   -0.6765 C   0  0  0  0  0
   -3.3068   -3.1221   -0.7182 C   0  0  0  0  0
   -3.3760   -1.1952    0.7374 C   0  0  0  0  0
   -2.7431   -0.9365   -1.5798 C   0  0  0  0  0
    1.8341    0.5000   -1.6730 C   0  0  0  0  0
   -3.5409   -2.5661    0.5394 C   0  0  0  0  0
   -2.9079   -2.3074   -1.7779 C   0  0  0  0  0
    1.8393    1.5239   -2.6202 C   0  0  0  0  0
   -0.1125    1.4773   -0.6274 C   0  0  0  0  0
   -2.9771   -0.3804   -0.3222 C   0  0  0  0  0
    2.8490   -0.5699   -1.7022 C   0  0  0  0  0
    3.5300    0.9996   -5.9140 C   0  0  0  0  0
    5.1939    1.7731   -4.2135 C   0  0  0  0  0
    2.3931    1.5181   -5.0337 C   0  0  0  0  0
    4.0528    2.2942   -3.3414 C   0  0  0  0  0
    4.8199    1.7975   -5.6992 C   0  0  0  0  0
   -3.9673   -3.4372    1.6722 C   0  0  0  0  0
   -2.6575   -2.9021   -3.1223 C   0  0  0  0  0
    5.9543    1.2388   -6.5547 C   0  0  0  0  0
    2.8099    1.5654   -3.6283 N   0  0  0  0  0
   -1.1116    1.4538    0.3921 N   0  0  0  0  0
    2.6045   -1.6333   -2.3836 O   0  0  0  0  0
    3.9419   -0.4013   -1.0451 O   0  0  0  0  0
   -3.5973    1.7227    1.0628 O   0  0  0  0  0
   -2.9653    2.0175   -1.3482 O   0  0  0  0  0
   -2.7682    1.3592   -0.0711 S   0  0  0  0  0
  1 10  1  0  0  0
  2 11  1  0  0  0
  3  7  1  0  0  0
  4  9  1  0  0  0
  5  8  1  0  0  0
  6 12  1  0  0  0
  7 13  1  0  0  0
 10 22  1  0  0  0
 11 23  1  0  0  0
 13 24  1  0  0  0
 14 16  1  0  0  0
 14 18  1  0  0  0
 15 17  1  0  0  0
 15 18  1  0  0  0
 16 22  1  0  0  0
 17 22  1  0  0  0
 18 21  1  0  0  0
 19  8  1  0  0  0
 20  9  1  0  0  0
 28 12  1  0  0  0
 28 23  1  0  0  0
  1  2  2  0  0  0
  3 11  2  0  0  0
  4  8  2  0  0  0
  5 12  2  0  0  0
  6  9  2  0  0  0
  7 10  2  0  0  0
 13 25  2  0  0  0
 28 26  2  0  0  0
 28 27  2  0  0  0
M  CHG  1  24  -1
M  END
> <rmsd>
0.525786698

$$$$
ZINC33253447


 28 30  0  0  0  0  0  0  0  0999 V2000
    1.0207    2.8840   -2.1906 C   0  0  0  0  0
   -0.0387    2.7670   -1.2908 C   0  0  0  0  0
    0.9951    0.8067   -0.3287 C   0  0  0  0  0
   -2.8525   -3.1013   -0.8030 C   0  0  0  0  0
   -3.2078   -1.2129    0.6614 C   0  0  0  0  0
   -2.3845   -0.8630   -1.5829 C   0  0  0  0  0
    2.0545    0.9238   -1.2285 C   0  0  0  0  0
   -3.2454   -2.5885    0.4332 C   0  0  0  0  0
   -2.4220   -2.2386   -1.8111 C   0  0  0  0  0
    2.0673    1.9624   -2.1594 C   0  0  0  0  0
   -0.0515    1.7283   -0.3598 C   0  0  0  0  0
   -2.7774   -0.3502   -0.3466 C   0  0  0  0  0
    3.1486   -0.0640   -1.1743 C   0  0  0  0  0
    4.0927    1.6316   -5.2852 C   0  0  0  0  0
    5.5254    2.4993   -3.4270 C   0  0  0  0  0
    2.8417    2.0444   -4.5100 C   0  0  0  0  0
    4.2709    2.9145   -2.6603 C   0  0  0  0  0
    5.2904    2.5225   -4.9409 C   0  0  0  0  0
   -3.7055   -3.5109    1.5109 C   0  0  0  0  0
   -2.0018   -2.7870   -3.1326 C   0  0  0  0  0
    6.5398    2.0691   -5.6921 C   0  0  0  0  0
    3.1211    2.0975   -3.0712 N   0  0  0  0  0
   -1.1361    1.6087    0.5609 N   0  0  0  0  0
    3.0527   -1.1301   -1.8876 O   0  0  0  0  0
    4.1591    0.1761   -0.4154 O   0  0  0  0  0
   -3.6868    1.6726    0.9977 O   0  0  0  0  0
   -2.8586    2.0602   -1.3397 O   0  0  0  0  0
   -2.7300    1.3954   -0.0573 S   0  0  0  0  0
  1 10  1  0  0  0
  2 11  1  0  0  0
  3  7  1  0  0  0
  4  9  1  0  0  0
  5  8  1  0  0  0
  6 12  1  0  0  0
  7 13  1  0  0  0
 10 22  1  0  0  0
 11 23  1  0  0  0
 13 24  1  0  0  0
 14 16  1  0  0  0
 14 18  1  0  0  0
 15 17  1  0  0  0
 15 18  1  0  0  0
 16 22  1  0  0  0
 17 22  1  0  0  0
 18 21  1  0  0  0
 19  8  1  0  0  0
 20  9  1  0  0  0
 28 12  1  0  0  0
 28 23  1  0  0  0
  1  2  2  0  0  0
  3 11  2  0  0  0
  4  8  2  0  0  0
  5 12  2  0  0  0
  6  9  2  0  0  0
  7 10  2  0  0  0
 13 25  2  0  0  0
 28 26  2  0  0  0
 28 27  2  0  0  0
M  CHG  1  24  -1
M  END
> <rmsd>
0.70678854

$$$$
ZINC33253441


 28 30  0  0  0  0  0  0  0  0999 V2000
   -3.2445   -2.5881    0.4334 C   0  0  0  0  0
   -2.4209   -2.2377   -1.8106 C   0  0  0  0  0
    1.0206    2.8843   -2.1908 C   0  0  0  0  0
   -0.0387    2.7674   -1.2910 C   0  0  0  0  0
   -3.2075   -1.2126    0.6618 C   0  0  0  0  0
   -2.3840   -0.8621   -1.5823 C   0  0  0  0  0
    0.9952    0.8072   -0.3286 C   0  0  0  0  0
    2.0545    0.9242   -1.2286 C   0  0  0  0  0
   -2.8512   -3.1007   -0.8027 C   0  0  0  0  0
    2.0672    1.9627   -2.1597 C   0  0  0  0  0
   -0.0514    1.7289   -0.3598 C   0  0  0  0  0
   -2.7773   -0.3496   -0.3461 C   0  0  0  0  0
    3.1486   -0.0636   -1.1743 C   0  0  0  0  0
    4.0924    1.6314   -5.2856 C   0  0  0  0  0
    5.5253    2.4993   -3.4276 C   0  0  0  0  0
    2.8414    2.0443   -4.5103 C   0  0  0  0  0
    4.2708    2.9147   -2.6609 C   0  0  0  0  0
    5.2901    2.5223   -4.9415 C   0  0  0  0  0
    6.5393    2.0688   -5.6928 C   0  0  0  0  0
   -1.5768   -5.2559   -0.6710 C   0  0  0  0  0
   -2.8886   -4.5714   -1.0466 C   0  0  0  0  0
    3.1209    2.0976   -3.0715 N   0  0  0  0  0
   -1.1359    1.6094    0.5610 N   0  0  0  0  0
    3.0526   -1.1298   -1.8875 O   0  0  0  0  0
    4.1592    0.1766   -0.4155 O   0  0  0  0  0
   -3.6866    1.6734    0.9980 O   0  0  0  0  0
   -2.8586    2.0607   -1.3395 O   0  0  0  0  0
   -2.7298    1.3960   -0.0570 S   0  0  0  0  0
  1  9  1  0  0  0
  2  6  1  0  0  0
  3 10  1  0  0  0
  4 11  1  0  0  0
  5 12  1  0  0  0
  7  8  1  0  0  0
  8 13  1  0  0  0
 10 22  1  0  0  0
 11 23  1  0  0  0
 13 24  1  0  0  0
 14 16  1  0  0  0
 14 18  1  0  0  0
 15 17  1  0  0  0
 15 18  1  0  0  0
 16 22  1  0  0  0
 17 22  1  0  0  0
 18 19  1  0  0  0
 20 21  1  0  0  0
 21  9  1  0  0  0
 28 12  1  0  0  0
 28 23  1  0  0  0
  1  5  2  0  0  0
  2  9  2  0  0  0
  3  4  2  0  0  0
  6 12  2  0  0  0
  7 11  2  0  0  0
  8 10  2  0  0  0
 13 25  2  0  0  0
 28 26  2  0  0  0
 28 27  2  0  0  0
M  CHG  1  24  -1
M  END
> <rmsd>
0.707357764

$$$$
ZINC33253441


 28 30  0  0  0  0  0  0  0  0999 V2000
   -3.5401   -2.5657    0.5396 C   0  0  0  0  0
   -2.9067   -2.3066   -1.7774 C   0  0  0  0  0
    0.8686    2.5245   -2.5715 C   0  0  0  0  0
   -0.1072    2.5014   -1.5750 C   0  0  0  0  0
   -3.3758   -1.1948    0.7378 C   0  0  0  0  0
   -2.7425   -0.9357   -1.5793 C   0  0  0  0  0
    0.8584    0.4772   -0.6765 C   0  0  0  0  0
    1.8341    0.5003   -1.6730 C   0  0  0  0  0
   -3.3055   -3.1216   -0.7180 C   0  0  0  0  0
    1.8392    1.5240   -2.6205 C   0  0  0  0  0
   -0.1123    1.4778   -0.6275 C   0  0  0  0  0
   -2.9770   -0.3799   -0.3216 C   0  0  0  0  0
    2.8490   -0.5697   -1.7022 C   0  0  0  0  0
    3.5296    0.9991   -5.9143 C   0  0  0  0  0
    5.1936    1.7729   -4.2141 C   0  0  0  0  0
    2.3927    1.5178   -5.0340 C   0  0  0  0  0
    4.0527    2.2942   -3.3420 C   0  0  0  0  0
    4.8195    1.7970   -5.6998 C   0  0  0  0  0
    5.9538    1.2383   -6.5553 C   0  0  0  0  0
   -2.1944   -5.3687   -0.6650 C   0  0  0  0  0
   -3.4790   -4.5875   -0.9297 C   0  0  0  0  0
    2.8097    1.5653   -3.6286 N   0  0  0  0  0
   -1.1114    1.4544    0.3922 N   0  0  0  0  0
    2.6044   -1.6331   -2.3833 O   0  0  0  0  0
    3.9420   -0.4009   -1.0452 O   0  0  0  0  0
   -3.5970    1.7235    1.0631 O   0  0  0  0  0
   -2.9653    2.0179   -1.3480 O   0  0  0  0  0
   -2.7680    1.3598   -0.0709 S   0  0  0  0  0
  1  9  1  0  0  0
  2  6  1  0  0  0
  3 10  1  0  0  0
  4 11  1  0  0  0
  5 12  1  0  0  0
  7  8  1  0  0  0
  8 13  1  0  0  0
 10 22  1  0  0  0
 11 23  1  0  0  0
 13 24  1  0  0  0
 14 16  1  0  0  0
 14 18  1  0  0  0
 15 17  1  0  0  0
 15 18  1  0  0  0
 16 22  1  0  0  0
 17 22  1  0  0  0
 18 19  1  0  0  0
 20 21  1  0  0  0
 21  9  1  0  0  0
 28 12  1  0  0  0
 28 23  1  0  0  0
  1  5  2  0  0  0
  2  9  2  0  0  0
  3  4  2  0  0  0
  6 12  2  0  0  0
  7 11  2  0  0  0
  8 10  2  0  0  0
 13 25  2  0  0  0
 28 26  2  0  0  0
 28 27  2  0  0  0
M  CHG  1  24  -1
M  END
> <rmsd>
0.526240826

$$$$
ZINC33253665


 28 30  0  0  0  0  0  0  0  0999 V2000
   -3.5402   -2.5668    0.5357 C   0  0  0  0  0
   -2.9073   -2.3059   -1.7813 C   0  0  0  0  0
   -0.1350    2.4679   -1.6189 C   0  0  0  0  0
    0.8304    2.4766   -2.6257 C   0  0  0  0  0
   -3.3757   -1.1961    0.7349 C   0  0  0  0  0
   -2.7430   -0.9352   -1.5822 C   0  0  0  0  0
    0.8590    0.4747   -0.6829 C   0  0  0  0  0
    1.8244    0.4833   -1.6897 C   0  0  0  0  0
   -3.3059   -3.1218   -0.7225 C   0  0  0  0  0
   -0.1207    1.4670   -0.6475 C   0  0  0  0  0
    1.8100    1.4842   -2.6611 C   0  0  0  0  0
   -2.9773   -0.3803   -0.3239 C   0  0  0  0  0
    2.8497   -0.5769   -1.7039 C   0  0  0  0  0
   -3.4661   -7.1113   -2.5257 C   0  0  0  0  0
   -2.3571   -6.8068   -1.5232 C   0  0  0  0  0
   -4.7760   -6.4311   -2.1396 C   0  0  0  0  0
   -2.1653   -5.3032   -1.3336 C   0  0  0  0  0
   -4.5962   -4.9256   -1.9531 C   0  0  0  0  0
   -3.4820   -4.6096   -0.9385 C   0  0  0  0  0
    4.0213    2.2302   -3.5065 C   0  0  0  0  0
    2.5438    0.8051   -4.9328 C   0  0  0  0  0
   -1.1166    1.4580    0.3899 N   0  0  0  0  0
    2.7783    1.5101   -3.6897 N   0  0  0  0  0
    2.6093   -1.6585   -2.3573 O   0  0  0  0  0
    3.9473   -0.3819   -1.0619 O   0  0  0  0  0
   -3.5921    1.7208    1.0664 O   0  0  0  0  0
   -2.9719    2.0189   -1.3473 O   0  0  0  0  0
   -2.7710    1.3355   -0.0753 S   0  0  0  0  0
  1  9  1  0  0  0
  2  6  1  0  0  0
  3 10  1  0  0  0
  4 11  1  0  0  0
  5 12  1  0  0  0
  7  8  1  0  0  0
  8 13  1  0  0  0
 10 22  1  0  0  0
 11 23  1  0  0  0
 13 24  1  0  0  0
 14 15  1  0  0  0
 14 16  1  0  0  0
 15 17  1  0  0  0
 16 18  1  0  0  0
 17 19  1  0  0  0
 18 19  1  0  0  0
 19  9  1  0  0  0
 20 23  1  0  0  0
 21 23  1  0  0  0
 28 12  1  0  0  0
 28 22  1  0  0  0
  1  5  2  0  0  0
  2  9  2  0  0  0
  3  4  2  0  0  0
  6 12  2  0  0  0
  7 10  2  0  0  0
  8 11  2  0  0  0
 13 25  2  0  0  0
 28 26  2  0  0  0
 28 27  2  0  0  0
M  CHG  1  24  -1
M  END
> <rmsd>
0.527835906

$$$$
ZINC33253665


 28 30  0  0  0  0  0  0  0  0999 V2000
   -3.2367   -2.5898    0.4252 C   0  0  0  0  0
   -2.4206   -2.2323   -1.8206 C   0  0  0  0  0
   -0.0682    2.7416   -1.3423 C   0  0  0  0  0
    0.9802    2.8471   -2.2563 C   0  0  0  0  0
   -3.2019   -1.2148    0.6567 C   0  0  0  0  0
   -2.3860   -0.8572   -1.5891 C   0  0  0  0  0
    0.9949    0.8145   -0.3456 C   0  0  0  0  0
    2.0432    0.9200   -1.2597 C   0  0  0  0  0
   -2.8460   -3.0986   -0.8135 C   0  0  0  0  0
   -0.0609    1.7253   -0.3869 C   0  0  0  0  0
    2.0358    1.9363   -2.2150 C   0  0  0  0  0
   -2.7767   -0.3485   -0.3504 C   0  0  0  0  0
    3.1477   -0.0553   -1.1940 C   0  0  0  0  0
   -2.5208   -7.0506   -2.6763 C   0  0  0  0  0
   -1.5349   -6.6799   -1.5726 C   0  0  0  0  0
   -3.9108   -6.4841   -2.4027 C   0  0  0  0  0
   -1.4828   -5.1700   -1.3465 C   0  0  0  0  0
   -3.8705   -4.9733   -2.1807 C   0  0  0  0  0
   -2.8814   -4.5909   -1.0643 C   0  0  0  0  0
    4.2468    2.8720   -2.8447 C   0  0  0  0  0
    3.0236    1.3640   -4.4188 C   0  0  0  0  0
   -1.1423    1.6162    0.5548 N   0  0  0  0  0
    3.0875    2.0597   -3.1503 N   0  0  0  0  0
    3.0551   -1.1390   -1.8809 O   0  0  0  0  0
    4.1637    0.2127   -0.4519 O   0  0  0  0  0
   -3.6817    1.6685    1.0054 O   0  0  0  0  0
   -2.8726    2.0641   -1.3372 O   0  0  0  0  0
   -2.7327    1.3729   -0.0614 S   0  0  0  0  0
  1  9  1  0  0  0
  2  6  1  0  0  0
  3 10  1  0  0  0
  4 11  1  0  0  0
  5 12  1  0  0  0
  7  8  1  0  0  0
  8 13  1  0  0  0
 10 22  1  0  0  0
 11 23  1  0  0  0
 13 24  1  0  0  0
 14 15  1  0  0  0
 14 16  1  0  0  0
 15 17  1  0  0  0
 16 18  1  0  0  0
 17 19  1  0  0  0
 18 19  1  0  0  0
 19  9  1  0  0  0
 20 23  1  0  0  0
 21 23  1  0  0  0
 28 12  1  0  0  0
 28 22  1  0  0  0
  1  5  2  0  0  0
  2  9  2  0  0  0
  3  4  2  0  0  0
  6 12  2  0  0  0
  7 10  2  0  0  0
  8 11  2  0  0  0
 13 25  2  0  0  0
 28 26  2  0  0  0
 28 27  2  0  0  0
M  CHG  1  24  -1
M  END
> <rmsd>
0.711456597

$$$$
ZINC33253643


 28 30  0  0  0  0  0  0  0  0999 V2000
   -3.2321   -2.5868    0.4250 C   0  0  0  0  0
   -0.0691    2.7415   -1.3425 C   0  0  0  0  0
    0.9791    2.8468   -2.2568 C   0  0  0  0  0
   -3.2026   -1.2116    0.6548 C   0  0  0  0  0
    0.9937    0.8142   -0.3461 C   0  0  0  0  0
   -2.3873   -0.8578   -1.5881 C   0  0  0  0  0
    2.0419    0.9194   -1.2603 C   0  0  0  0  0
   -2.8317   -3.1134   -0.8123 C   0  0  0  0  0
   -2.4223   -2.2385   -1.8356 C   0  0  0  0  0
   -0.0618    1.7251   -0.3872 C   0  0  0  0  0
    2.0346    1.9358   -2.2157 C   0  0  0  0  0
   -2.7781   -0.3477   -0.3505 C   0  0  0  0  0
    3.1463   -0.0561   -1.1948 C   0  0  0  0  0
   -2.9098   -4.6035   -1.0336 C   0  0  0  0  0
   -1.9603   -2.7541   -3.1757 C   0  0  0  0  0
   -2.1085   -5.0762   -2.2450 C   0  0  0  0  0
   -2.3961   -4.1919   -3.4515 C   0  0  0  0  0
    3.9724    4.3148   -3.0970 C   0  0  0  0  0
    2.3361    2.1906   -5.4530 C   0  0  0  0  0
    4.2456    2.8709   -2.8458 C   0  0  0  0  0
    3.0218    1.3631   -4.4197 C   0  0  0  0  0
   -1.1430    1.6165    0.5547 N   0  0  0  0  0
    3.0860    2.0589   -3.1511 N   0  0  0  0  0
    3.0533   -1.1397   -1.8816 O   0  0  0  0  0
    4.1625    0.2118   -0.4529 O   0  0  0  0  0
   -3.6824    1.6693    1.0059 O   0  0  0  0  0
   -2.8735    2.0649   -1.3370 O   0  0  0  0  0
   -2.7337    1.3733   -0.0612 S   0  0  0  0  0
  1  8  1  0  0  0
  2 10  1  0  0  0
  3 11  1  0  0  0
  4 12  1  0  0  0
  5  7  1  0  0  0
  6  9  1  0  0  0
  7 13  1  0  0  0
 10 22  1  0  0  0
 11 23  1  0  0  0
 13 24  1  0  0  0
 14  8  1  0  0  0
 14 16  1  0  0  0
 15  9  1  0  0  0
 15 17  1  0  0  0
 16 17  1  0  0  0
 18 20  1  0  0  0
 19 21  1  0  0  0
 20 23  1  0  0  0
 21 23  1  0  0  0
 28 12  1  0  0  0
 28 22  1  0  0  0
  1  4  2  0  0  0
  2  3  2  0  0  0
  5 10  2  0  0  0
  6 12  2  0  0  0
  7 11  2  0  0  0
  8  9  2  0  0  0
 13 25  2  0  0  0
 28 26  2  0  0  0
 28 27  2  0  0  0
M  CHG  1  24  -1
M  END
> <rmsd>
0.713794291

$$$$
ZINC33253643


 28 30  0  0  0  0  0  0  0  0999 V2000
   -3.5357   -2.5641    0.5355 C   0  0  0  0  0
   -0.1358    2.4676   -1.6189 C   0  0  0  0  0
    0.8296    2.4758   -2.6258 C   0  0  0  0  0
   -3.3766   -1.1928    0.7333 C   0  0  0  0  0
    0.8578    0.4742   -0.6827 C   0  0  0  0  0
   -2.7442   -0.9359   -1.5807 C   0  0  0  0  0
    1.8231    0.4824   -1.6895 C   0  0  0  0  0
   -3.2930   -3.1378   -0.7218 C   0  0  0  0  0
   -2.9108   -2.3124   -1.7956 C   0  0  0  0  0
   -0.1216    1.4667   -0.6474 C   0  0  0  0  0
    1.8090    1.4832   -2.6611 C   0  0  0  0  0
   -2.9787   -0.3795   -0.3237 C   0  0  0  0  0
    2.8482   -0.5781   -1.7036 C   0  0  0  0  0
   -3.5087   -4.6195   -0.9045 C   0  0  0  0  0
   -2.6154   -2.8814   -3.1609 C   0  0  0  0  0
   -2.8613   -5.1714   -2.1731 C   0  0  0  0  0
   -3.1870   -4.2829   -3.3667 C   0  0  0  0  0
    3.8403    3.6863   -3.7620 C   0  0  0  0  0
    1.8326    1.6698   -5.9170 C   0  0  0  0  0
    4.0202    2.2285   -3.5068 C   0  0  0  0  0
    2.5423    0.8034   -4.9328 C   0  0  0  0  0
   -1.1175    1.4582    0.3901 N   0  0  0  0  0
    2.7770    1.5087   -3.6898 N   0  0  0  0  0
    2.6074   -1.6597   -2.3569 O   0  0  0  0  0
    3.9460   -0.3832   -1.0619 O   0  0  0  0  0
   -3.5928    1.7218    1.0667 O   0  0  0  0  0
   -2.9726    2.0196   -1.3471 O   0  0  0  0  0
   -2.7720    1.3360   -0.0751 S   0  0  0  0  0
  1  8  1  0  0  0
  2 10  1  0  0  0
  3 11  1  0  0  0
  4 12  1  0  0  0
  5  7  1  0  0  0
  6  9  1  0  0  0
  7 13  1  0  0  0
 10 22  1  0  0  0
 11 23  1  0  0  0
 13 24  1  0  0  0
 14  8  1  0  0  0
 14 16  1  0  0  0
 15  9  1  0  0  0
 15 17  1  0  0  0
 16 17  1  0  0  0
 18 20  1  0  0  0
 19 21  1  0  0  0
 20 23  1  0  0  0
 21 23  1  0  0  0
 28 12  1  0  0  0
 28 22  1  0  0  0
  1  4  2  0  0  0
  2  3  2  0  0  0
  5 10  2  0  0  0
  6 12  2  0  0  0
  7 11  2  0  0  0
  8  9  2  0  0  0
 13 25  2  0  0  0
 28 26  2  0  0  0
 28 27  2  0  0  0
M  CHG  1  24  -1
M  END
> <rmsd>
0.529806852

$$$$
ZINC07357355


 23 24  0  0  0  0  0  0  0  0999 V2000
   -0.0236    2.7465   -1.2991 C   0  0  0  0  0
    1.0363    2.8569   -2.1992 C   0  0  0  0  0
   -3.2570   -2.5890    0.4391 C   0  0  0  0  0
   -3.2107   -1.2132    0.6641 C   0  0  0  0  0
    1.0017    0.7841   -0.3323 C   0  0  0  0  0
   -2.3884   -0.8737   -1.5823 C   0  0  0  0  0
   -0.0410    1.7101   -0.3657 C   0  0  0  0  0
    2.0789    1.9308   -2.1658 C   0  0  0  0  0
    2.0616    0.8944   -1.2324 C   0  0  0  0  0
   -2.8688   -3.1072   -0.7964 C   0  0  0  0  0
   -2.7765   -0.3556   -0.3466 C   0  0  0  0  0
   -2.4346   -2.2496   -1.8071 C   0  0  0  0  0
   -4.1467   -4.9880   -1.4933 C   0  0  0  0  0
    3.1412    2.0651   -3.0884 N   0  0  0  0  0
   -1.1259    1.5978    0.5558 N   0  0  0  0  0
    3.1118   -0.0643   -1.1780 N   0  0  0  0  0
    3.0168   -1.1055   -1.8690 O   0  0  0  0  0
    4.0999    0.1619   -0.4410 O   0  0  0  0  0
   -3.6760    1.6745    0.9933 O   0  0  0  0  0
   -2.8469    2.0530   -1.3453 O   0  0  0  0  0
   -2.9258   -4.4561   -0.9837 O   0  0  0  0  0
   -2.7208    1.3903   -0.0613 S   0  0  0  0  0
   -1.9000   -2.9180   -3.4982 Br  0  0  0  0  0
  1  7  1  0  0  0
  2  8  1  0  0  0
  3 10  1  0  0  0
  4 11  1  0  0  0
  5  9  1  0  0  0
  6 12  1  0  0  0
  7 15  1  0  0  0
  8 14  1  0  0  0
  9 16  1  0  0  0
 10 21  1  0  0  0
 12 23  1  0  0  0
 13 21  1  0  0  0
 16 17  1  0  0  0
 22 11  1  0  0  0
 22 15  1  0  0  0
  1  2  2  0  0  0
  3  4  2  0  0  0
  5  7  2  0  0  0
  6 11  2  0  0  0
  8  9  2  0  0  0
 10 12  2  0  0  0
 16 18  2  0  0  0
 22 19  2  0  0  0
 22 20  2  0  0  0
M  CHG  2  16   1  17  -1
M  END
> <rmsd>
0.705919027

$$$$
ZINC64843267


 28 30  0  0  0  0  0  0  0  0999 V2000
    1.0041    0.7847   -0.3096 C   0  0  0  0  0
   -2.8811   -3.1085   -0.7766 C   0  0  0  0  0
   -3.2325   -1.2080    0.6730 C   0  0  0  0  0
   -2.3871   -0.8793   -1.5663 C   0  0  0  0  0
    0.0110    2.7189   -1.2734 C   0  0  0  0  0
    2.0564    0.9141   -1.2092 C   0  0  0  0  0
   -3.2800   -2.5847    0.4529 C   0  0  0  0  0
   -2.4345   -2.2559   -1.7863 C   0  0  0  0  0
   -0.0420    1.7003   -0.3357 C   0  0  0  0  0
   -2.7860   -0.3553   -0.3365 C   0  0  0  0  0
    2.0153    1.9678   -2.1079 C   0  0  0  0  0
    3.1635   -0.0571   -1.1795 C   0  0  0  0  0
    4.0486    1.6426   -5.2292 C   0  0  0  0  0
    5.4768    2.5064   -3.3658 C   0  0  0  0  0
    2.7956    2.0541   -4.4563 C   0  0  0  0  0
    4.2204    2.9204   -2.6014 C   0  0  0  0  0
    5.2456    2.5324   -4.8802 C   0  0  0  0  0
   -3.7572   -3.4963    1.5324 C   0  0  0  0  0
   -2.0079   -2.8161   -3.1008 C   0  0  0  0  0
    6.4967    2.0802   -5.6292 C   0  0  0  0  0
    1.0163    2.8769   -2.1634 N   0  0  0  0  0
    3.0714    2.1044   -3.0167 N   0  0  0  0  0
   -1.1344    1.5939    0.5732 N   0  0  0  0  0
    3.0765   -1.1167   -1.9056 O   0  0  0  0  0
    4.1802    0.1864   -0.4284 O   0  0  0  0  0
   -3.6906    1.6838    0.9862 O   0  0  0  0  0
   -2.8363    2.0494   -1.3454 O   0  0  0  0  0
   -2.7260    1.3914   -0.0576 S   0  0  0  0  0
  1  9  1  0  0  0
  2  8  1  0  0  0
  3  7  1  0  0  0
  4 10  1  0  0  0
  5 21  1  0  0  0
  6 11  1  0  0  0
  6 12  1  0  0  0
  9 23  1  0  0  0
 11 22  1  0  0  0
 12 24  1  0  0  0
 13 15  1  0  0  0
 13 17  1  0  0  0
 14 16  1  0  0  0
 14 17  1  0  0  0
 15 22  1  0  0  0
 16 22  1  0  0  0
 17 20  1  0  0  0
 18  7  1  0  0  0
 19  8  1  0  0  0
 28 10  1  0  0  0
 28 23  1  0  0  0
  1  6  2  0  0  0
  2  7  2  0  0  0
  3 10  2  0  0  0
  4  8  2  0  0  0
  5  9  2  0  0  0
 11 21  2  0  0  0
 12 25  2  0  0  0
 28 26  2  0  0  0
 28 27  2  0  0  0
M  CHG  1  24  -1
M  END
> <rmsd>
0.689228296

$$$$
ZINC64843267


 28 30  0  0  0  0  0  0  0  0999 V2000
    0.8678    0.4569   -0.6596 C   0  0  0  0  0
   -3.3308   -3.1265   -0.6927 C   0  0  0  0  0
   -3.3975   -1.1891    0.7491 C   0  0  0  0  0
   -2.7442   -0.9511   -1.5648 C   0  0  0  0  0
   -0.0609    2.4522   -1.5612 C   0  0  0  0  0
    1.8373    0.4943   -1.6556 C   0  0  0  0  0
   -3.5708   -2.5601    0.5591 C   0  0  0  0  0
   -2.9175   -2.3221   -1.7547 C   0  0  0  0  0
   -0.1030    1.4508   -0.6046 C   0  0  0  0  0
   -2.9842   -0.3846   -0.3128 C   0  0  0  0  0
    1.7925    1.5383   -2.5653 C   0  0  0  0  0
    2.8646   -0.5599   -1.7117 C   0  0  0  0  0
    3.4915    1.0224   -5.8561 C   0  0  0  0  0
    5.1509    1.7921   -4.1497 C   0  0  0  0  0
    2.3522    1.5385   -4.9773 C   0  0  0  0  0
    4.0076    2.3109   -3.2791 C   0  0  0  0  0
    4.7806    1.8200   -5.6362 C   0  0  0  0  0
   -4.0125   -3.4203    1.6945 C   0  0  0  0  0
   -2.6608   -2.9279   -3.0930 C   0  0  0  0  0
    5.9173    1.2637   -6.4903 C   0  0  0  0  0
    0.8652    2.5219   -2.5437 N   0  0  0  0  0
    2.7655    1.5825   -3.5709 N   0  0  0  0  0
   -1.1097    1.4396    0.4040 N   0  0  0  0  0
    2.6287   -1.6171   -2.4074 O   0  0  0  0  0
    3.9633   -0.3883   -1.0631 O   0  0  0  0  0
   -3.6012    1.7328    1.0516 O   0  0  0  0  0
   -2.9451    2.0059   -1.3555 O   0  0  0  0  0
   -2.7646    1.3550   -0.0721 S   0  0  0  0  0
  1  9  1  0  0  0
  2  8  1  0  0  0
  3  7  1  0  0  0
  4 10  1  0  0  0
  5 21  1  0  0  0
  6 11  1  0  0  0
  6 12  1  0  0  0
  9 23  1  0  0  0
 11 22  1  0  0  0
 12 24  1  0  0  0
 13 15  1  0  0  0
 13 17  1  0  0  0
 14 16  1  0  0  0
 14 17  1  0  0  0
 15 22  1  0  0  0
 16 22  1  0  0  0
 17 20  1  0  0  0
 18  7  1  0  0  0
 19  8  1  0  0  0
 28 10  1  0  0  0
 28 23  1  0  0  0
  1  6  2  0  0  0
  2  7  2  0  0  0
  3 10  2  0  0  0
  4  8  2  0  0  0
  5  9  2  0  0  0
 11 21  2  0  0  0
 12 25  2  0  0  0
 28 26  2  0  0  0
 28 27  2  0  0  0
M  CHG  1  24  -1
M  END
> <rmsd>
0.51009798

$$$$
ZINC64843259


 28 30  0  0  0  0  0  0  0  0999 V2000
   -2.9515   -2.2118   -1.8668 C   0  0  0  0  0
   -2.9052   -0.8384   -1.6273 C   0  0  0  0  0
    1.0028    0.7871   -0.3128 C   0  0  0  0  0
   -2.7572   -2.6318    0.5046 C   0  0  0  0  0
    0.0025    2.7128   -1.2863 C   0  0  0  0  0
    2.0523    0.9131   -1.2162 C   0  0  0  0  0
   -2.8776   -3.1085   -0.8008 C   0  0  0  0  0
   -2.7108   -1.2583    0.7440 C   0  0  0  0  0
   -0.0455    1.7001   -0.3420 C   0  0  0  0  0
   -2.7848   -0.3617   -0.3219 C   0  0  0  0  0
    2.0063    1.9609   -2.1215 C   0  0  0  0  0
    3.1617   -0.0554   -1.1833 C   0  0  0  0  0
    4.3755    1.1954   -4.9114 C   0  0  0  0  0
    5.2357    3.1201   -3.5644 C   0  0  0  0  0
    2.9781    1.4188   -4.3336 C   0  0  0  0  0
    3.8351    3.3412   -2.9952 C   0  0  0  0  0
    5.1803    2.4978   -4.9634 C   0  0  0  0  0
   -2.9268   -4.5771   -1.0574 C   0  0  0  0  0
   -2.5814   -0.7807    2.1534 C   0  0  0  0  0
    6.5863    2.2476   -5.5033 C   0  0  0  0  0
    1.0050    2.8674   -2.1801 N   0  0  0  0  0
    3.0596    2.0940   -3.0341 N   0  0  0  0  0
   -1.1351    1.5971    0.5707 N   0  0  0  0  0
    3.0751   -1.1198   -1.9023 O   0  0  0  0  0
    4.1799    0.1953   -0.4366 O   0  0  0  0  0
   -3.6904    1.6837    0.9901 O   0  0  0  0  0
   -2.8434    2.0364   -1.3461 O   0  0  0  0  0
   -2.7280    1.3869   -0.0544 S   0  0  0  0  0
  1  7  1  0  0  0
  2 10  1  0  0  0
  3  9  1  0  0  0
  4  8  1  0  0  0
  5 21  1  0  0  0
  6 11  1  0  0  0
  6 12  1  0  0  0
  9 23  1  0  0  0
 11 22  1  0  0  0
 12 24  1  0  0  0
 13 15  1  0  0  0
 13 17  1  0  0  0
 14 16  1  0  0  0
 14 17  1  0  0  0
 15 22  1  0  0  0
 16 22  1  0  0  0
 17 20  1  0  0  0
 18  7  1  0  0  0
 19  8  1  0  0  0
 28 10  1  0  0  0
 28 23  1  0  0  0
  1  2  2  0  0  0
  3  6  2  0  0  0
  4  7  2  0  0  0
  5  9  2  0  0  0
  8 10  2  0  0  0
 11 21  2  0  0  0
 12 25  2  0  0  0
 28 26  2  0  0  0
 28 27  2  0  0  0
M  CHG  1  24  -1
M  END
> <rmsd>
0.69218266

$$$$
ZINC64843259


 28 30  0  0  0  0  0  0  0  0999 V2000
   -3.4350   -2.2398   -1.7860 C   0  0  0  0  0
   -3.2607   -0.8717   -1.5773 C   0  0  0  0  0
    0.8667    0.4568   -0.6599 C   0  0  0  0  0
   -3.0525   -2.6472    0.5645 C   0  0  0  0  0
   -0.0689    2.4440   -1.5721 C   0  0  0  0  0
    1.8337    0.4899   -1.6586 C   0  0  0  0  0
   -3.3309   -3.1276   -0.7151 C   0  0  0  0  0
   -2.8782   -1.2790    0.7732 C   0  0  0  0  0
   -0.1061    1.4488   -0.6088 C   0  0  0  0  0
   -2.9823   -0.3913   -0.2976 C   0  0  0  0  0
    1.7840    1.5279   -2.5750 C   0  0  0  0  0
    2.8633   -0.5622   -1.7105 C   0  0  0  0  0
    3.8156    0.5477   -5.5574 C   0  0  0  0  0
    4.9438    2.4139   -4.3313 C   0  0  0  0  0
    2.4998    0.8865   -4.8570 C   0  0  0  0  0
    3.6240    2.7505   -3.6393 C   0  0  0  0  0
    4.7099    1.7823   -5.7075 C   0  0  0  0  0
   -3.5170   -4.5905   -0.9389 C   0  0  0  0  0
   -2.5810   -0.7973    2.1556 C   0  0  0  0  0
    6.0358    1.4165   -6.3704 C   0  0  0  0  0
    0.8545    2.5094   -2.5574 N   0  0  0  0  0
    2.7543    1.5677   -3.5834 N   0  0  0  0  0
   -1.1103    1.4418    0.4024 N   0  0  0  0  0
    2.6280   -1.6245   -2.3987 O   0  0  0  0  0
    3.9632   -0.3839   -1.0659 O   0  0  0  0  0
   -3.6007    1.7334    1.0546 O   0  0  0  0  0
   -2.9515    1.9923   -1.3560 O   0  0  0  0  0
   -2.7661    1.3503   -0.0688 S   0  0  0  0  0
  1  7  1  0  0  0
  2 10  1  0  0  0
  3  9  1  0  0  0
  4  8  1  0  0  0
  5 21  1  0  0  0
  6 11  1  0  0  0
  6 12  1  0  0  0
  9 23  1  0  0  0
 11 22  1  0  0  0
 12 24  1  0  0  0
 13 15  1  0  0  0
 13 17  1  0  0  0
 14 16  1  0  0  0
 14 17  1  0  0  0
 15 22  1  0  0  0
 16 22  1  0  0  0
 17 20  1  0  0  0
 18  7  1  0  0  0
 19  8  1  0  0  0
 28 10  1  0  0  0
 28 23  1  0  0  0
  1  2  2  0  0  0
  3  6  2  0  0  0
  4  7  2  0  0  0
  5  9  2  0  0  0
  8 10  2  0  0  0
 11 21  2  0  0  0
 12 25  2  0  0  0
 28 26  2  0  0  0
 28 27  2  0  0  0
M  CHG  1  24  -1
M  END
> <rmsd>
0.512301564

$$$$
ZINC35397590


 28 30  0  0  0  0  0  0  0  0999 V2000
   -3.5701   -2.5610    0.5584 C   0  0  0  0  0
   -2.9164   -2.3224   -1.7551 C   0  0  0  0  0
   -3.3973   -1.1901    0.7488 C   0  0  0  0  0
   -2.7436   -0.9514   -1.5649 C   0  0  0  0  0
    0.8679    0.4561   -0.6600 C   0  0  0  0  0
   -0.0607    2.4514   -1.5617 C   0  0  0  0  0
    1.8374    0.4933   -1.6560 C   0  0  0  0  0
   -3.3296   -3.1273   -0.6935 C   0  0  0  0  0
   -0.1029    1.4500   -0.6050 C   0  0  0  0  0
   -2.9841   -0.3852   -0.3130 C   0  0  0  0  0
    1.7925    1.5374   -2.5658 C   0  0  0  0  0
    2.8646   -0.5608   -1.7123 C   0  0  0  0  0
    2.4596    4.0166   -5.7032 C   0  0  0  0  0
    3.8214    4.2371   -5.0415 C   0  0  0  0  0
    2.3515    2.7388   -6.5381 C   0  0  0  0  0
    3.9118    3.7933   -3.5816 C   0  0  0  0  0
    1.7035    1.5523   -5.8249 C   0  0  0  0  0
    4.0376    2.2848   -3.3813 C   0  0  0  0  0
    2.6101    0.8377   -4.8253 C   0  0  0  0  0
   -3.5122   -4.5932   -0.8967 C   0  0  0  0  0
    0.8652    2.5209   -2.5442 N   0  0  0  0  0
    2.7647    1.5814   -3.5706 N   0  0  0  0  0
   -1.1095    1.4389    0.4035 N   0  0  0  0  0
    2.6287   -1.6181   -2.4077 O   0  0  0  0  0
    3.9633   -0.3891   -1.0636 O   0  0  0  0  0
   -3.6010    1.7323    1.0514 O   0  0  0  0  0
   -2.9450    2.0052   -1.3558 O   0  0  0  0  0
   -2.7644    1.3544   -0.0723 S   0  0  0  0  0
  1  8  1  0  0  0
  2  4  1  0  0  0
  3 10  1  0  0  0
  5  9  1  0  0  0
  6 21  1  0  0  0
  7 11  1  0  0  0
  7 12  1  0  0  0
  9 23  1  0  0  0
 11 22  1  0  0  0
 12 24  1  0  0  0
 13 14  1  0  0  0
 13 15  1  0  0  0
 14 16  1  0  0  0
 15 17  1  0  0  0
 16 18  1  0  0  0
 17 19  1  0  0  0
 18 22  1  0  0  0
 19 22  1  0  0  0
 20  8  1  0  0  0
 28 10  1  0  0  0
 28 23  1  0  0  0
  1  3  2  0  0  0
  2  8  2  0  0  0
  4 10  2  0  0  0
  5  7  2  0  0  0
  6  9  2  0  0  0
 11 21  2  0  0  0
 12 25  2  0  0  0
 28 26  2  0  0  0
 28 27  2  0  0  0
M  CHG  1  24  -1
M  END
> <rmsd>
0.510272563

$$$$
ZINC35397590


 28 30  0  0  0  0  0  0  0  0999 V2000
   -3.2792   -2.5855    0.4522 C   0  0  0  0  0
   -2.4334   -2.2559   -1.7867 C   0  0  0  0  0
   -3.2323   -1.2090    0.6727 C   0  0  0  0  0
   -2.3865   -0.8794   -1.5664 C   0  0  0  0  0
    1.0042    0.7841   -0.3100 C   0  0  0  0  0
    0.0110    2.7184   -1.2738 C   0  0  0  0  0
    2.0565    0.9134   -1.2097 C   0  0  0  0  0
   -2.8797   -3.1091   -0.7774 C   0  0  0  0  0
   -0.0420    1.6997   -0.3361 C   0  0  0  0  0
   -2.7859   -0.3559   -0.3367 C   0  0  0  0  0
    2.0153    1.9671   -2.1085 C   0  0  0  0  0
    3.1635   -0.0578   -1.1801 C   0  0  0  0  0
    2.7765    4.5461   -5.1423 C   0  0  0  0  0
    4.0494    4.8584   -4.3529 C   0  0  0  0  0
    2.8466    3.2790   -5.9973 C   0  0  0  0  0
    4.0377    4.3967   -2.8958 C   0  0  0  0  0
    2.2294    2.0337   -5.3611 C   0  0  0  0  0
    4.2615    2.8989   -2.7006 C   0  0  0  0  0
    3.0919    1.3728   -4.2882 C   0  0  0  0  0
   -2.9277   -4.5808   -1.0125 C   0  0  0  0  0
    1.0162    2.8762   -2.1639 N   0  0  0  0  0
    3.0705    2.1035   -3.0166 N   0  0  0  0  0
   -1.1342    1.5934    0.5728 N   0  0  0  0  0
    3.0766   -1.1173   -1.9059 O   0  0  0  0  0
    4.1803    0.1859   -0.4290 O   0  0  0  0  0
   -3.6905    1.6833    0.9860 O   0  0  0  0  0
   -2.8363    2.0488   -1.3456 O   0  0  0  0  0
   -2.7259    1.3909   -0.0578 S   0  0  0  0  0
  1  8  1  0  0  0
  2  4  1  0  0  0
  3 10  1  0  0  0
  5  9  1  0  0  0
  6 21  1  0  0  0
  7 11  1  0  0  0
  7 12  1  0  0  0
  9 23  1  0  0  0
 11 22  1  0  0  0
 12 24  1  0  0  0
 13 14  1  0  0  0
 13 15  1  0  0  0
 14 16  1  0  0  0
 15 17  1  0  0  0
 16 18  1  0  0  0
 17 19  1  0  0  0
 18 22  1  0  0  0
 19 22  1  0  0  0
 20  8  1  0  0  0
 28 10  1  0  0  0
 28 23  1  0  0  0
  1  3  2  0  0  0
  2  8  2  0  0  0
  4 10  2  0  0  0
  5  7  2  0  0  0
  6  9  2  0  0  0
 11 21  2  0  0  0
 12 25  2  0  0  0
 28 26  2  0  0  0
 28 27  2  0  0  0
M  CHG  1  24  -1
M  END
> <rmsd>
0.689331293

$$$$
ZINC35397429


 28 30  0  0  0  0  0  0  0  0999 V2000
   -2.9518   -2.2117   -1.8672 C   0  0  0  0  0
   -2.9054   -0.8384   -1.6278 C   0  0  0  0  0
    1.0027    0.7870   -0.3133 C   0  0  0  0  0
   -2.7574   -2.6317    0.5040 C   0  0  0  0  0
    0.0025    2.7128   -1.2868 C   0  0  0  0  0
    2.0522    0.9130   -1.2167 C   0  0  0  0  0
   -2.8778   -3.1085   -0.8014 C   0  0  0  0  0
   -2.7110   -1.2584    0.7434 C   0  0  0  0  0
   -0.0456    1.7000   -0.3424 C   0  0  0  0  0
   -2.7850   -0.3617   -0.3226 C   0  0  0  0  0
    2.0062    1.9609   -2.1220 C   0  0  0  0  0
    3.1616   -0.0555   -1.1839 C   0  0  0  0  0
    4.2714    4.1075   -4.9423 C   0  0  0  0  0
    3.6629    3.1654   -5.9799 C   0  0  0  0  0
    5.0708    3.3806   -3.8607 C   0  0  0  0  0
    2.5832    2.2268   -5.4447 C   0  0  0  0  0
    4.2265    2.9058   -2.6765 C   0  0  0  0  0
    3.0547    1.3438   -4.2914 C   0  0  0  0  0
   -2.9270   -4.5770   -1.0580 C   0  0  0  0  0
   -2.5816   -0.7807    2.1528 C   0  0  0  0  0
    1.0048    2.8673   -2.1805 N   0  0  0  0  0
    3.0595    2.0940   -3.0347 N   0  0  0  0  0
   -1.1352    1.5971    0.5702 N   0  0  0  0  0
    3.0750   -1.1198   -1.9028 O   0  0  0  0  0
    4.1797    0.1953   -0.4371 O   0  0  0  0  0
   -3.6905    1.6838    0.9897 O   0  0  0  0  0
   -2.8436    2.0365   -1.3465 O   0  0  0  0  0
   -2.7282    1.3870   -0.0549 S   0  0  0  0  0
  1  7  1  0  0  0
  2 10  1  0  0  0
  3  9  1  0  0  0
  4  8  1  0  0  0
  5 21  1  0  0  0
  6 11  1  0  0  0
  6 12  1  0  0  0
  9 23  1  0  0  0
 11 22  1  0  0  0
 12 24  1  0  0  0
 13 14  1  0  0  0
 13 15  1  0  0  0
 14 16  1  0  0  0
 15 17  1  0  0  0
 16 18  1  0  0  0
 17 22  1  0  0  0
 18 22  1  0  0  0
 19  7  1  0  0  0
 20  8  1  0  0  0
 28 10  1  0  0  0
 28 23  1  0  0  0
  1  2  2  0  0  0
  3  6  2  0  0  0
  4  7  2  0  0  0
  5  9  2  0  0  0
  8 10  2  0  0  0
 11 21  2  0  0  0
 12 25  2  0  0  0
 28 26  2  0  0  0
 28 27  2  0  0  0
M  CHG  1  24  -1
M  END
> <rmsd>
0.692143679

$$$$
ZINC35397429


 28 30  0  0  0  0  0  0  0  0999 V2000
   -3.4349   -2.2398   -1.7865 C   0  0  0  0  0
   -3.2607   -0.8718   -1.5778 C   0  0  0  0  0
    0.8668    0.4568   -0.6600 C   0  0  0  0  0
   -3.0526   -2.6472    0.5640 C   0  0  0  0  0
   -0.0687    2.4440   -1.5723 C   0  0  0  0  0
    1.8338    0.4899   -1.6586 C   0  0  0  0  0
   -3.3310   -3.1276   -0.7156 C   0  0  0  0  0
   -2.8783   -1.2790    0.7727 C   0  0  0  0  0
   -0.1061    1.4488   -0.6091 C   0  0  0  0  0
   -2.9824   -0.3913   -0.2983 C   0  0  0  0  0
    1.7842    1.5280   -2.5750 C   0  0  0  0  0
    2.8634   -0.5622   -1.7105 C   0  0  0  0  0
    3.9344    3.4586   -5.6315 C   0  0  0  0  0
    3.1608    2.5555   -6.5910 C   0  0  0  0  0
    4.7731    2.6834   -4.6152 C   0  0  0  0  0
    2.0668    1.7105   -5.9411 C   0  0  0  0  0
    4.0092    2.2895   -3.3496 C   0  0  0  0  0
    2.5746    0.8062   -4.8201 C   0  0  0  0  0
   -3.5169   -4.5905   -0.9395 C   0  0  0  0  0
   -2.5813   -0.7972    2.1551 C   0  0  0  0  0
    0.8546    2.5094   -2.5576 N   0  0  0  0  0
    2.7547    1.5678   -3.5834 N   0  0  0  0  0
   -1.1103    1.4419    0.4020 N   0  0  0  0  0
    2.6282   -1.6244   -2.3986 O   0  0  0  0  0
    3.9632   -0.3837   -1.0657 O   0  0  0  0  0
   -3.6010    1.7335    1.0540 O   0  0  0  0  0
   -2.9515    1.9924   -1.3565 O   0  0  0  0  0
   -2.7662    1.3504   -0.0693 S   0  0  0  0  0
  1  7  1  0  0  0
  2 10  1  0  0  0
  3  9  1  0  0  0
  4  8  1  0  0  0
  5 21  1  0  0  0
  6 11  1  0  0  0
  6 12  1  0  0  0
  9 23  1  0  0  0
 11 22  1  0  0  0
 12 24  1  0  0  0
 13 14  1  0  0  0
 13 15  1  0  0  0
 14 16  1  0  0  0
 15 17  1  0  0  0
 16 18  1  0  0  0
 17 22  1  0  0  0
 18 22  1  0  0  0
 19  7  1  0  0  0
 20  8  1  0  0  0
 28 10  1  0  0  0
 28 23  1  0  0  0
  1  2  2  0  0  0
  3  6  2  0  0  0
  4  7  2  0  0  0
  5  9  2  0  0  0
  8 10  2  0  0  0
 11 21  2  0  0  0
 12 25  2  0  0  0
 28 26  2  0  0  0
 28 27  2  0  0  0
M  CHG  1  24  -1
M  END
> <rmsd>
0.512361646

$$$$
ZINC35397447


 28 30  0  0  0  0  0  0  0  0999 V2000
    0.8684    0.4570   -0.6591 C   0  0  0  0  0
   -3.3301   -3.1266   -0.6926 C   0  0  0  0  0
   -3.3970   -1.1892    0.7491 C   0  0  0  0  0
   -2.7435   -0.9512   -1.5646 C   0  0  0  0  0
   -0.0602    2.4522   -1.5608 C   0  0  0  0  0
    1.8381    0.4944   -1.6549 C   0  0  0  0  0
   -3.5702   -2.5602    0.5592 C   0  0  0  0  0
   -2.9167   -2.3221   -1.7545 C   0  0  0  0  0
   -0.1024    1.4508   -0.6042 C   0  0  0  0  0
   -2.9836   -0.3847   -0.3128 C   0  0  0  0  0
    1.7932    1.5385   -2.5646 C   0  0  0  0  0
    2.8654   -0.5597   -1.7110 C   0  0  0  0  0
    3.9558    3.4841   -5.6029 C   0  0  0  0  0
    3.1826    2.5890   -6.5703 C   0  0  0  0  0
    4.7901    2.7003   -4.5895 C   0  0  0  0  0
    2.0850    1.7424   -5.9288 C   0  0  0  0  0
    4.0219    2.3000   -3.3284 C   0  0  0  0  0
    2.5879    0.8296   -4.8124 C   0  0  0  0  0
   -4.0120   -3.4204    1.6945 C   0  0  0  0  0
   -2.6597   -2.9280   -3.0928 C   0  0  0  0  0
    0.8658    2.5219   -2.5432 N   0  0  0  0  0
    2.7665    1.5827   -3.5702 N   0  0  0  0  0
   -1.1092    1.4397    0.4043 N   0  0  0  0  0
    2.6296   -1.6169   -2.4066 O   0  0  0  0  0
    3.9640   -0.3880   -1.0622 O   0  0  0  0  0
   -3.6009    1.7327    1.0517 O   0  0  0  0  0
   -2.9446    2.0058   -1.3554 O   0  0  0  0  0
   -2.7641    1.3550   -0.0719 S   0  0  0  0  0
  1  9  1  0  0  0
  2  8  1  0  0  0
  3  7  1  0  0  0
  4 10  1  0  0  0
  5 21  1  0  0  0
  6 11  1  0  0  0
  6 12  1  0  0  0
  9 23  1  0  0  0
 11 22  1  0  0  0
 12 24  1  0  0  0
 13 14  1  0  0  0
 13 15  1  0  0  0
 14 16  1  0  0  0
 15 17  1  0  0  0
 16 18  1  0  0  0
 17 22  1  0  0  0
 18 22  1  0  0  0
 19  7  1  0  0  0
 20  8  1  0  0  0
 28 10  1  0  0  0
 28 23  1  0  0  0
  1  6  2  0  0  0
  2  7  2  0  0  0
  3 10  2  0  0  0
  4  8  2  0  0  0
  5  9  2  0  0  0
 11 21  2  0  0  0
 12 25  2  0  0  0
 28 26  2  0  0  0
 28 27  2  0  0  0
M  CHG  1  24  -1
M  END
> <rmsd>
0.510008752

$$$$
ZINC35397447


 28 30  0  0  0  0  0  0  0  0999 V2000
    1.0046    0.7848   -0.3094 C   0  0  0  0  0
   -2.8806   -3.1085   -0.7765 C   0  0  0  0  0
   -3.2321   -1.2081    0.6731 C   0  0  0  0  0
   -2.3866   -0.8792   -1.5661 C   0  0  0  0  0
    0.0113    2.7190   -1.2732 C   0  0  0  0  0
    2.0569    0.9142   -1.2090 C   0  0  0  0  0
   -3.2795   -2.5846    0.4531 C   0  0  0  0  0
   -2.4341   -2.2558   -1.7861 C   0  0  0  0  0
   -0.0416    1.7003   -0.3355 C   0  0  0  0  0
   -2.7856   -0.3554   -0.3365 C   0  0  0  0  0
    2.0157    1.9680   -2.1077 C   0  0  0  0  0
    3.1639   -0.0570   -1.1793 C   0  0  0  0  0
    4.2935    4.1276   -4.9078 C   0  0  0  0  0
    3.6858    3.1935   -5.9532 C   0  0  0  0  0
    5.0883    3.3919   -3.8288 C   0  0  0  0  0
    2.6025    2.2539   -5.4270 C   0  0  0  0  0
    4.2397    2.9114   -2.6500 C   0  0  0  0  0
    3.0689    1.3624   -4.2781 C   0  0  0  0  0
   -3.7567   -3.4964    1.5325 C   0  0  0  0  0
   -2.0073   -2.8161   -3.1007 C   0  0  0  0  0
    1.0165    2.8770   -2.1632 N   0  0  0  0  0
    3.0719    2.1045   -3.0166 N   0  0  0  0  0
   -1.1340    1.5940    0.5734 N   0  0  0  0  0
    3.0770   -1.1165   -1.9053 O   0  0  0  0  0
    4.1806    0.1867   -0.4282 O   0  0  0  0  0
   -3.6903    1.6837    0.9863 O   0  0  0  0  0
   -2.8360    2.0494   -1.3452 O   0  0  0  0  0
   -2.7257    1.3914   -0.0574 S   0  0  0  0  0
  1  9  1  0  0  0
  2  8  1  0  0  0
  3  7  1  0  0  0
  4 10  1  0  0  0
  5 21  1  0  0  0
  6 11  1  0  0  0
  6 12  1  0  0  0
  9 23  1  0  0  0
 11 22  1  0  0  0
 12 24  1  0  0  0
 13 14  1  0  0  0
 13 15  1  0  0  0
 14 16  1  0  0  0
 15 17  1  0  0  0
 16 18  1  0  0  0
 17 22  1  0  0  0
 18 22  1  0  0  0
 19  7  1  0  0  0
 20  8  1  0  0  0
 28 10  1  0  0  0
 28 23  1  0  0  0
  1  6  2  0  0  0
  2  7  2  0  0  0
  3 10  2  0  0  0
  4  8  2  0  0  0
  5  9  2  0  0  0
 11 21  2  0  0  0
 12 25  2  0  0  0
 28 26  2  0  0  0
 28 27  2  0  0  0
M  CHG  1  24  -1
M  END
> <rmsd>
0.688969791

$$$$
ZINC35397337


 28 30  0  0  0  0  0  0  0  0999 V2000
   -3.2794   -2.5848    0.4519 C   0  0  0  0  0
   -2.4334   -2.2553   -1.7870 C   0  0  0  0  0
   -3.2325   -1.2082    0.6723 C   0  0  0  0  0
   -2.3866   -0.8787   -1.5667 C   0  0  0  0  0
    1.0040    0.7849   -0.3103 C   0  0  0  0  0
    0.0108    2.7190   -1.2742 C   0  0  0  0  0
    2.0563    0.9142   -1.2100 C   0  0  0  0  0
   -2.8798   -3.1083   -0.7776 C   0  0  0  0  0
   -0.0421    1.7005   -0.3364 C   0  0  0  0  0
   -2.7861   -0.3552   -0.3370 C   0  0  0  0  0
    2.0151    1.9679   -2.1087 C   0  0  0  0  0
    3.1634   -0.0569   -1.1802 C   0  0  0  0  0
    4.0483    1.6425   -5.2301 C   0  0  0  0  0
    5.4766    2.5064   -3.3668 C   0  0  0  0  0
    2.7954    2.0540   -4.4572 C   0  0  0  0  0
    4.2202    2.9205   -2.6024 C   0  0  0  0  0
    5.2453    2.5324   -4.8812 C   0  0  0  0  0
    6.4964    2.0801   -5.6302 C   0  0  0  0  0
   -1.6252   -5.2735   -0.6217 C   0  0  0  0  0
   -2.9277   -4.5801   -1.0128 C   0  0  0  0  0
    1.0161    2.8770   -2.1642 N   0  0  0  0  0
    3.0712    2.1044   -3.0176 N   0  0  0  0  0
   -1.1344    1.5942    0.5726 N   0  0  0  0  0
    3.0764   -1.1165   -1.9062 O   0  0  0  0  0
    4.1802    0.1867   -0.4291 O   0  0  0  0  0
   -3.6906    1.6840    0.9856 O   0  0  0  0  0
   -2.8364    2.0495   -1.3460 O   0  0  0  0  0
   -2.7261    1.3916   -0.0582 S   0  0  0  0  0
  1  8  1  0  0  0
  2  4  1  0  0  0
  3 10  1  0  0  0
  5  9  1  0  0  0
  6 21  1  0  0  0
  7 11  1  0  0  0
  7 12  1  0  0  0
  9 23  1  0  0  0
 11 22  1  0  0  0
 12 24  1  0  0  0
 13 15  1  0  0  0
 13 17  1  0  0  0
 14 16  1  0  0  0
 14 17  1  0  0  0
 15 22  1  0  0  0
 16 22  1  0  0  0
 17 18  1  0  0  0
 19 20  1  0  0  0
 20  8  1  0  0  0
 28 10  1  0  0  0
 28 23  1  0  0  0
  1  3  2  0  0  0
  2  8  2  0  0  0
  4 10  2  0  0  0
  5  7  2  0  0  0
  6  9  2  0  0  0
 11 21  2  0  0  0
 12 25  2  0  0  0
 28 26  2  0  0  0
 28 27  2  0  0  0
M  CHG  1  24  -1
M  END
> <rmsd>
0.689315975

$$$$
ZINC35397337


 28 30  0  0  0  0  0  0  0  0999 V2000
   -3.5702   -2.5603    0.5581 C   0  0  0  0  0
   -2.9164   -2.3216   -1.7555 C   0  0  0  0  0
   -3.3975   -1.1893    0.7484 C   0  0  0  0  0
   -2.7438   -0.9506   -1.5652 C   0  0  0  0  0
    0.8676    0.4571   -0.6603 C   0  0  0  0  0
   -0.0611    2.4523   -1.5620 C   0  0  0  0  0
    1.8372    0.4944   -1.6563 C   0  0  0  0  0
   -3.3296   -3.1265   -0.6938 C   0  0  0  0  0
   -0.1031    1.4510   -0.6053 C   0  0  0  0  0
   -2.9842   -0.3844   -0.3133 C   0  0  0  0  0
    1.7923    1.5384   -2.5660 C   0  0  0  0  0
    2.8645   -0.5597   -1.7123 C   0  0  0  0  0
    3.4911    1.0222   -5.8569 C   0  0  0  0  0
    5.1507    1.7921   -4.1506 C   0  0  0  0  0
    2.3519    1.5384   -4.9781 C   0  0  0  0  0
    4.0074    2.3109   -3.2800 C   0  0  0  0  0
    4.7803    1.8198   -5.6371 C   0  0  0  0  0
    5.9169    1.2635   -6.4912 C   0  0  0  0  0
   -2.2355   -5.3811   -0.6166 C   0  0  0  0  0
   -3.5121   -4.5924   -0.8970 C   0  0  0  0  0
    0.8650    2.5219   -2.5445 N   0  0  0  0  0
    2.7653    1.5825   -3.5717 N   0  0  0  0  0
   -1.1098    1.4398    0.4033 N   0  0  0  0  0
    2.6286   -1.6170   -2.4079 O   0  0  0  0  0
    3.9632   -0.3881   -1.0638 O   0  0  0  0  0
   -3.6013    1.7330    1.0510 O   0  0  0  0  0
   -2.9453    2.0059   -1.3562 O   0  0  0  0  0
   -2.7647    1.3552   -0.0727 S   0  0  0  0  0
  1  8  1  0  0  0
  2  4  1  0  0  0
  3 10  1  0  0  0
  5  9  1  0  0  0
  6 21  1  0  0  0
  7 11  1  0  0  0
  7 12  1  0  0  0
  9 23  1  0  0  0
 11 22  1  0  0  0
 12 24  1  0  0  0
 13 15  1  0  0  0
 13 17  1  0  0  0
 14 16  1  0  0  0
 14 17  1  0  0  0
 15 22  1  0  0  0
 16 22  1  0  0  0
 17 18  1  0  0  0
 19 20  1  0  0  0
 20  8  1  0  0  0
 28 10  1  0  0  0
 28 23  1  0  0  0
  1  3  2  0  0  0
  2  8  2  0  0  0
  4 10  2  0  0  0
  5  7  2  0  0  0
  6  9  2  0  0  0
 11 21  2  0  0  0
 12 25  2  0  0  0
 28 26  2  0  0  0
 28 27  2  0  0  0
M  CHG  1  24  -1
M  END
> <rmsd>
0.510174394

$$$$
ZINC35397434


 28 30  0  0  0  0  0  0  0  0999 V2000
   -3.5699   -2.5608    0.5585 C   0  0  0  0  0
   -2.9160   -2.3221   -1.7550 C   0  0  0  0  0
   -3.3973   -1.1898    0.7488 C   0  0  0  0  0
   -2.7432   -0.9511   -1.5647 C   0  0  0  0  0
    0.8681    0.4566   -0.6594 C   0  0  0  0  0
   -0.0605    2.4518   -1.5612 C   0  0  0  0  0
    1.8377    0.4939   -1.6553 C   0  0  0  0  0
   -3.3292   -3.1269   -0.6934 C   0  0  0  0  0
   -0.1027    1.4505   -0.6045 C   0  0  0  0  0
   -2.9840   -0.3849   -0.3129 C   0  0  0  0  0
    1.7928    1.5379   -2.5651 C   0  0  0  0  0
    2.8650   -0.5603   -1.7113 C   0  0  0  0  0
    3.9553    3.4832   -5.6036 C   0  0  0  0  0
    3.1821    2.5881   -6.5709 C   0  0  0  0  0
    4.7896    2.6995   -4.5901 C   0  0  0  0  0
    2.0845    1.7416   -5.9292 C   0  0  0  0  0
    4.0215    2.2993   -3.3290 C   0  0  0  0  0
    2.5874    0.8289   -4.8128 C   0  0  0  0  0
   -2.2350   -5.3816   -0.6160 C   0  0  0  0  0
   -3.5117   -4.5930   -0.8966 C   0  0  0  0  0
    0.8655    2.5214   -2.5437 N   0  0  0  0  0
    2.7660    1.5820   -3.5707 N   0  0  0  0  0
   -1.1095    1.4394    0.4040 N   0  0  0  0  0
    2.6292   -1.6175   -2.4068 O   0  0  0  0  0
    3.9636   -0.3885   -1.0626 O   0  0  0  0  0
   -3.6011    1.7326    1.0515 O   0  0  0  0  0
   -2.9449    2.0055   -1.3557 O   0  0  0  0  0
   -2.7644    1.3548   -0.0722 S   0  0  0  0  0
  1  8  1  0  0  0
  2  4  1  0  0  0
  3 10  1  0  0  0
  5  9  1  0  0  0
  6 21  1  0  0  0
  7 11  1  0  0  0
  7 12  1  0  0  0
  9 23  1  0  0  0
 11 22  1  0  0  0
 12 24  1  0  0  0
 13 14  1  0  0  0
 13 15  1  0  0  0
 14 16  1  0  0  0
 15 17  1  0  0  0
 16 18  1  0  0  0
 17 22  1  0  0  0
 18 22  1  0  0  0
 19 20  1  0  0  0
 20  8  1  0  0  0
 28 10  1  0  0  0
 28 23  1  0  0  0
  1  3  2  0  0  0
  2  8  2  0  0  0
  4 10  2  0  0  0
  5  7  2  0  0  0
  6  9  2  0  0  0
 11 21  2  0  0  0
 12 25  2  0  0  0
 28 26  2  0  0  0
 28 27  2  0  0  0
M  CHG  1  24  -1
M  END
> <rmsd>
0.510401309

$$$$
ZINC35397434


 28 30  0  0  0  0  0  0  0  0999 V2000
   -3.2792   -2.5852    0.4524 C   0  0  0  0  0
   -2.4334   -2.2557   -1.7866 C   0  0  0  0  0
   -3.2324   -1.2087    0.6727 C   0  0  0  0  0
   -2.3864   -0.8791   -1.5662 C   0  0  0  0  0
    1.0043    0.7844   -0.3098 C   0  0  0  0  0
    0.0111    2.7185   -1.2736 C   0  0  0  0  0
    2.0566    0.9137   -1.2094 C   0  0  0  0  0
   -2.8796   -3.1087   -0.7772 C   0  0  0  0  0
   -0.0418    1.6999   -0.3359 C   0  0  0  0  0
   -2.7859   -0.3556   -0.3366 C   0  0  0  0  0
    2.0154    1.9674   -2.1082 C   0  0  0  0  0
    3.1636   -0.0575   -1.1797 C   0  0  0  0  0
    4.2931    4.1268   -4.9086 C   0  0  0  0  0
    3.6854    3.1926   -5.9538 C   0  0  0  0  0
    5.0880    3.3912   -3.8295 C   0  0  0  0  0
    2.6021    2.2531   -5.4275 C   0  0  0  0  0
    4.2394    2.9108   -2.6506 C   0  0  0  0  0
    3.0685    1.3617   -4.2785 C   0  0  0  0  0
   -1.6251   -5.2740   -0.6213 C   0  0  0  0  0
   -2.9276   -4.5806   -1.0124 C   0  0  0  0  0
    1.0163    2.8764   -2.1637 N   0  0  0  0  0
    3.0716    2.1039   -3.0172 N   0  0  0  0  0
   -1.1342    1.5937    0.5731 N   0  0  0  0  0
    3.0766   -1.1171   -1.9057 O   0  0  0  0  0
    4.1803    0.1862   -0.4287 O   0  0  0  0  0
   -3.6904    1.6836    0.9861 O   0  0  0  0  0
   -2.8363    2.0491   -1.3454 O   0  0  0  0  0
   -2.7259    1.3912   -0.0577 S   0  0  0  0  0
  1  8  1  0  0  0
  2  4  1  0  0  0
  3 10  1  0  0  0
  5  9  1  0  0  0
  6 21  1  0  0  0
  7 11  1  0  0  0
  7 12  1  0  0  0
  9 23  1  0  0  0
 11 22  1  0  0  0
 12 24  1  0  0  0
 13 14  1  0  0  0
 13 15  1  0  0  0
 14 16  1  0  0  0
 15 17  1  0  0  0
 16 18  1  0  0  0
 17 22  1  0  0  0
 18 22  1  0  0  0
 19 20  1  0  0  0
 20  8  1  0  0  0
 28 10  1  0  0  0
 28 23  1  0  0  0
  1  3  2  0  0  0
  2  8  2  0  0  0
  4 10  2  0  0  0
  5  7  2  0  0  0
  6  9  2  0  0  0
 11 21  2  0  0  0
 12 25  2  0  0  0
 28 26  2  0  0  0
 28 27  2  0  0  0
M  CHG  1  24  -1
M  END
> <rmsd>
0.6894086

$$$$
ZINC35397460


 28 30  0  0  0  0  0  0  0  0999 V2000
   -3.2695   -2.5863    0.4415 C   0  0  0  0  0
   -2.4303   -2.2481   -1.7988 C   0  0  0  0  0
   -3.2256   -1.2103    0.6656 C   0  0  0  0  0
   -2.3864   -0.8721   -1.5747 C   0  0  0  0  0
    1.0045    0.7938   -0.3285 C   0  0  0  0  0
   -0.0192    2.6931   -1.3294 C   0  0  0  0  0
    2.0451    0.9107   -1.2432 C   0  0  0  0  0
   -2.8718   -3.1052   -0.7907 C   0  0  0  0  0
   -0.0512    1.6981   -0.3657 C   0  0  0  0  0
   -2.7841   -0.3532   -0.3424 C   0  0  0  0  0
    1.9832    1.9409   -2.1677 C   0  0  0  0  0
    3.1622   -0.0484   -1.2018 C   0  0  0  0  0
    4.5109    1.6017   -4.8894 C   0  0  0  0  0
    4.9040    2.9264   -4.2677 C   0  0  0  0  0
    3.0733    1.4208   -4.4156 C   0  0  0  0  0
    4.2512    2.8591   -2.8919 C   0  0  0  0  0
   -1.2695   -5.1558    0.8268 C   0  0  0  0  0
   -1.7435   -6.8161   -0.9850 C   0  0  0  0  0
   -2.9170   -4.5943   -1.0329 C   0  0  0  0  0
   -1.6148   -5.3270   -0.6547 C   0  0  0  0  0
    0.9743    2.8384   -2.2345 N   0  0  0  0  0
    3.0334    2.0654   -3.0971 N   0  0  0  0  0
   -1.1419    1.6032    0.5667 N   0  0  0  0  0
    3.0778   -1.1269   -1.8998 O   0  0  0  0  0
    4.1848    0.2241   -0.4689 O   0  0  0  0  0
   -3.6849    1.6787    0.9939 O   0  0  0  0  0
   -2.8513    2.0544   -1.3435 O   0  0  0  0  0
   -2.7287    1.3693   -0.0626 S   0  0  0  0  0
  1  8  1  0  0  0
  2  4  1  0  0  0
  3 10  1  0  0  0
  5  9  1  0  0  0
  6 21  1  0  0  0
  7 11  1  0  0  0
  7 12  1  0  0  0
  9 23  1  0  0  0
 11 22  1  0  0  0
 12 24  1  0  0  0
 13 14  1  0  0  0
 13 15  1  0  0  0
 14 16  1  0  0  0
 15 22  1  0  0  0
 16 22  1  0  0  0
 17 20  1  0  0  0
 18 20  1  0  0  0
 19  8  1  0  0  0
 19 20  1  0  0  0
 28 10  1  0  0  0
 28 23  1  0  0  0
  1  3  2  0  0  0
  2  8  2  0  0  0
  4 10  2  0  0  0
  5  7  2  0  0  0
  6  9  2  0  0  0
 11 21  2  0  0  0
 12 25  2  0  0  0
 28 26  2  0  0  0
 28 27  2  0  0  0
M  CHG  1  24  -1
M  END
> <rmsd>
0.695286274

$$$$
ZINC35397460


 28 30  0  0  0  0  0  0  0  0999 V2000
   -3.5691   -2.5612    0.5524 C   0  0  0  0  0
   -2.9144   -2.3199   -1.7608 C   0  0  0  0  0
   -3.3968   -1.1904    0.7441 C   0  0  0  0  0
   -2.7420   -0.9490   -1.5690 C   0  0  0  0  0
    0.8691    0.4554   -0.6671 C   0  0  0  0  0
   -0.0891    2.4177   -1.6093 C   0  0  0  0  0
    1.8277    0.4768   -1.6741 C   0  0  0  0  0
   -3.3279   -3.1260   -0.7001 C   0  0  0  0  0
   -0.1111    1.4408   -0.6270 C   0  0  0  0  0
   -2.9833   -0.3844   -0.3165 C   0  0  0  0  0
    1.7627    1.4967   -2.6095 C   0  0  0  0  0
    2.8650   -0.5682   -1.7144 C   0  0  0  0  0
    3.9964    0.9214   -5.5408 C   0  0  0  0  0
    4.5477    2.2181   -4.9836 C   0  0  0  0  0
    2.5984    0.8625   -4.9358 C   0  0  0  0  0
    4.0202    2.2210   -3.5534 C   0  0  0  0  0
   -1.7507   -5.2777    0.8070 C   0  0  0  0  0
   -2.5176   -6.9175   -0.9212 C   0  0  0  0  0
   -3.5121   -4.6096   -0.9075 C   0  0  0  0  0
   -2.2424   -5.4394   -0.6336 C   0  0  0  0  0
    0.8257    2.4713   -2.6031 N   0  0  0  0  0
    2.7301    1.5248   -3.6322 N   0  0  0  0  0
   -1.1160    1.4455    0.4017 N   0  0  0  0  0
    2.6325   -1.6452   -2.3803 O   0  0  0  0  0
    3.9686   -0.3693   -1.0823 O   0  0  0  0  0
   -3.5954    1.7301    1.0548 O   0  0  0  0  0
   -2.9521    2.0080   -1.3553 O   0  0  0  0  0
   -2.7672    1.3316   -0.0772 S   0  0  0  0  0
  1  8  1  0  0  0
  2  4  1  0  0  0
  3 10  1  0  0  0
  5  9  1  0  0  0
  6 21  1  0  0  0
  7 11  1  0  0  0
  7 12  1  0  0  0
  9 23  1  0  0  0
 11 22  1  0  0  0
 12 24  1  0  0  0
 13 14  1  0  0  0
 13 15  1  0  0  0
 14 16  1  0  0  0
 15 22  1  0  0  0
 16 22  1  0  0  0
 17 20  1  0  0  0
 18 20  1  0  0  0
 19  8  1  0  0  0
 19 20  1  0  0  0
 28 10  1  0  0  0
 28 23  1  0  0  0
  1  3  2  0  0  0
  2  8  2  0  0  0
  4 10  2  0  0  0
  5  7  2  0  0  0
  6  9  2  0  0  0
 11 21  2  0  0  0
 12 25  2  0  0  0
 28 26  2  0  0  0
 28 27  2  0  0  0
M  CHG  1  24  -1
M  END
> <rmsd>
0.513245702

$$$$
ZINC35397714


 28 30  0  0  0  0  0  0  0  0999 V2000
   -3.5697   -2.5609    0.5532 C   0  0  0  0  0
   -2.9147   -2.3199   -1.7597 C   0  0  0  0  0
   -3.3973   -1.1901    0.7449 C   0  0  0  0  0
   -2.7424   -0.9491   -1.5682 C   0  0  0  0  0
    0.8688    0.4553   -0.6662 C   0  0  0  0  0
   -0.0893    2.4176   -1.6087 C   0  0  0  0  0
    1.8275    0.4765   -1.6731 C   0  0  0  0  0
   -3.3283   -3.1259   -0.6991 C   0  0  0  0  0
   -0.1114    1.4408   -0.6263 C   0  0  0  0  0
   -2.9837   -0.3842   -0.3158 C   0  0  0  0  0
    1.7625    1.4964   -2.6088 C   0  0  0  0  0
    2.8647   -0.5686   -1.7132 C   0  0  0  0  0
   -3.5011   -7.1261   -2.4774 C   0  0  0  0  0
   -2.3988   -6.8227   -1.4671 C   0  0  0  0  0
   -4.8095   -6.4341   -2.1073 C   0  0  0  0  0
   -2.1980   -5.3193   -1.2858 C   0  0  0  0  0
   -4.6206   -4.9287   -1.9292 C   0  0  0  0  0
   -3.5131   -4.6138   -0.9068 C   0  0  0  0  0
    2.4968    0.8325   -4.8848 C   0  0  0  0  0
    3.9693    2.2570   -3.4526 C   0  0  0  0  0
    0.8257    2.4710   -2.6025 N   0  0  0  0  0
   -1.1164    1.4457    0.4023 N   0  0  0  0  0
    2.7365    1.5245   -3.6382 N   0  0  0  0  0
    2.6322   -1.6455   -2.3789 O   0  0  0  0  0
    3.9683   -0.3695   -1.0810 O   0  0  0  0  0
   -3.5958    1.7304    1.0552 O   0  0  0  0  0
   -2.9523    2.0080   -1.3548 O   0  0  0  0  0
   -2.7675    1.3318   -0.0767 S   0  0  0  0  0
  1  8  1  0  0  0
  2  4  1  0  0  0
  3 10  1  0  0  0
  5  9  1  0  0  0
  6 21  1  0  0  0
  7 11  1  0  0  0
  7 12  1  0  0  0
  9 22  1  0  0  0
 11 23  1  0  0  0
 12 24  1  0  0  0
 13 14  1  0  0  0
 13 15  1  0  0  0
 14 16  1  0  0  0
 15 17  1  0  0  0
 16 18  1  0  0  0
 17 18  1  0  0  0
 18  8  1  0  0  0
 19 23  1  0  0  0
 20 23  1  0  0  0
 28 10  1  0  0  0
 28 22  1  0  0  0
  1  3  2  0  0  0
  2  8  2  0  0  0
  4 10  2  0  0  0
  5  7  2  0  0  0
  6  9  2  0  0  0
 11 21  2  0  0  0
 12 25  2  0  0  0
 28 26  2  0  0  0
 28 27  2  0  0  0
M  CHG  1  24  -1
M  END
> <rmsd>
0.512990654

$$$$
ZINC35397714


 28 30  0  0  0  0  0  0  0  0999 V2000
   -3.2699   -2.5860    0.4422 C   0  0  0  0  0
   -2.4306   -2.2480   -1.7980 C   0  0  0  0  0
   -3.2260   -1.2101    0.6663 C   0  0  0  0  0
   -2.3868   -0.8720   -1.5740 C   0  0  0  0  0
    1.0040    0.7941   -0.3279 C   0  0  0  0  0
   -0.0197    2.6933   -1.3289 C   0  0  0  0  0
    2.0447    0.9109   -1.2426 C   0  0  0  0  0
   -2.8721   -3.1051   -0.7900 C   0  0  0  0  0
   -0.0517    1.6983   -0.3652 C   0  0  0  0  0
   -2.7846   -0.3530   -0.3418 C   0  0  0  0  0
    1.9826    1.9410   -2.1672 C   0  0  0  0  0
    3.1618   -0.0482   -1.2011 C   0  0  0  0  0
   -2.5624   -7.0701   -2.6275 C   0  0  0  0  0
   -1.5835   -6.7012   -1.5169 C   0  0  0  0  0
   -3.9501   -6.4909   -2.3698 C   0  0  0  0  0
   -1.5212   -5.1905   -1.2988 C   0  0  0  0  0
   -3.8995   -4.9791   -2.1559 C   0  0  0  0  0
   -2.9174   -4.5985   -1.0327 C   0  0  0  0  0
    2.9699    1.3827   -4.3749 C   0  0  0  0  0
    4.1883    2.8898   -2.7961 C   0  0  0  0  0
    0.9738    2.8385   -2.2341 N   0  0  0  0  0
   -1.1424    1.6035    0.5673 N   0  0  0  0  0
    3.0400    2.0664   -3.1029 N   0  0  0  0  0
    3.0774   -1.1266   -1.8990 O   0  0  0  0  0
    4.1844    0.2244   -0.4682 O   0  0  0  0  0
   -3.6853    1.6789    0.9944 O   0  0  0  0  0
   -2.8518    2.0546   -1.3430 O   0  0  0  0  0
   -2.7292    1.3695   -0.0620 S   0  0  0  0  0
  1  8  1  0  0  0
  2  4  1  0  0  0
  3 10  1  0  0  0
  5  9  1  0  0  0
  6 21  1  0  0  0
  7 11  1  0  0  0
  7 12  1  0  0  0
  9 22  1  0  0  0
 11 23  1  0  0  0
 12 24  1  0  0  0
 13 14  1  0  0  0
 13 15  1  0  0  0
 14 16  1  0  0  0
 15 17  1  0  0  0
 16 18  1  0  0  0
 17 18  1  0  0  0
 18  8  1  0  0  0
 19 23  1  0  0  0
 20 23  1  0  0  0
 28 10  1  0  0  0
 28 22  1  0  0  0
  1  3  2  0  0  0
  2  8  2  0  0  0
  4 10  2  0  0  0
  5  7  2  0  0  0
  6  9  2  0  0  0
 11 21  2  0  0  0
 12 25  2  0  0  0
 28 26  2  0  0  0
 28 27  2  0  0  0
M  CHG  1  24  -1
M  END
> <rmsd>
0.695254147

$$$$
ZINC35397616


 28 30  0  0  0  0  0  0  0  0999 V2000
   -3.2803   -2.5842    0.4524 C   0  0  0  0  0
   -2.8811   -3.1084   -0.7771 C   0  0  0  0  0
   -3.2328   -1.2075    0.6722 C   0  0  0  0  0
    1.0042    0.7846   -0.3101 C   0  0  0  0  0
   -2.3869   -0.8792   -1.5670 C   0  0  0  0  0
    0.0112    2.7192   -1.2735 C   0  0  0  0  0
    2.0566    0.9140   -1.2096 C   0  0  0  0  0
   -2.4345   -2.2559   -1.7867 C   0  0  0  0  0
   -0.0419    1.7002   -0.3361 C   0  0  0  0  0
   -2.7861   -0.3550   -0.3375 C   0  0  0  0  0
    2.0156    1.9680   -2.1081 C   0  0  0  0  0
    3.1635   -0.0573   -1.1802 C   0  0  0  0  0
    2.7774    4.5477   -5.1412 C   0  0  0  0  0
    4.0503    4.8597   -4.3515 C   0  0  0  0  0
    2.8475    3.2808   -5.9964 C   0  0  0  0  0
    4.0383    4.3976   -2.8945 C   0  0  0  0  0
    2.2301    2.0354   -5.3607 C   0  0  0  0  0
    4.2620    2.8996   -2.6998 C   0  0  0  0  0
    3.0924    1.3742   -4.2878 C   0  0  0  0  0
   -2.0063   -2.8174   -3.1005 C   0  0  0  0  0
    1.0166    2.8772   -2.1634 N   0  0  0  0  0
    3.0709    2.1045   -3.0161 N   0  0  0  0  0
   -1.1342    1.5938    0.5727 N   0  0  0  0  0
    3.0765   -1.1167   -1.9063 O   0  0  0  0  0
    4.1802    0.1861   -0.4289 O   0  0  0  0  0
   -3.6906    1.6839    0.9856 O   0  0  0  0  0
   -2.8361    2.0499   -1.3457 O   0  0  0  0  0
   -2.7259    1.3917   -0.0581 S   0  0  0  0  0
  1  3  1  0  0  0
  2  8  1  0  0  0
  4  9  1  0  0  0
  5 10  1  0  0  0
  6 21  1  0  0  0
  7 11  1  0  0  0
  7 12  1  0  0  0
  9 23  1  0  0  0
 11 22  1  0  0  0
 12 24  1  0  0  0
 13 14  1  0  0  0
 13 15  1  0  0  0
 14 16  1  0  0  0
 15 17  1  0  0  0
 16 18  1  0  0  0
 17 19  1  0  0  0
 18 22  1  0  0  0
 19 22  1  0  0  0
 20  8  1  0  0  0
 28 10  1  0  0  0
 28 23  1  0  0  0
  1  2  2  0  0  0
  3 10  2  0  0  0
  4  7  2  0  0  0
  5  8  2  0  0  0
  6  9  2  0  0  0
 11 21  2  0  0  0
 12 25  2  0  0  0
 28 26  2  0  0  0
 28 27  2  0  0  0
M  CHG  1  24  -1
M  END
> <rmsd>
0.689102829

$$$$
ZINC35397616


 28 30  0  0  0  0  0  0  0  0999 V2000
   -3.5710   -2.5596    0.5586 C   0  0  0  0  0
   -3.3309   -3.1264   -0.6932 C   0  0  0  0  0
   -3.3977   -1.1886    0.7482 C   0  0  0  0  0
    0.8679    0.4567   -0.6602 C   0  0  0  0  0
   -2.7441   -0.9511   -1.5656 C   0  0  0  0  0
   -0.0605    2.4524   -1.5614 C   0  0  0  0  0
    1.8375    0.4941   -1.6561 C   0  0  0  0  0
   -2.9175   -2.3222   -1.7552 C   0  0  0  0  0
   -0.1028    1.4507   -0.6050 C   0  0  0  0  0
   -2.9842   -0.3843   -0.3138 C   0  0  0  0  0
    1.7928    1.5384   -2.5656 C   0  0  0  0  0
    2.8646   -0.5602   -1.7125 C   0  0  0  0  0
    2.4605    4.0184   -5.7022 C   0  0  0  0  0
    3.8223    4.2386   -5.0404 C   0  0  0  0  0
    2.3524    2.7408   -6.5375 C   0  0  0  0  0
    3.9125    3.7944   -3.5806 C   0  0  0  0  0
    1.7041    1.5542   -5.8247 C   0  0  0  0  0
    4.0381    2.2858   -3.3807 C   0  0  0  0  0
    2.6106    0.8393   -4.8252 C   0  0  0  0  0
   -2.6593   -2.9293   -3.0929 C   0  0  0  0  0
    0.8656    2.5220   -2.5438 N   0  0  0  0  0
    2.7651    1.5826   -3.5703 N   0  0  0  0  0
   -1.1095    1.4394    0.4034 N   0  0  0  0  0
    2.6287   -1.6172   -2.4082 O   0  0  0  0  0
    3.9633   -0.3887   -1.0637 O   0  0  0  0  0
   -3.6011    1.7328    1.0511 O   0  0  0  0  0
   -2.9448    2.0063   -1.3560 O   0  0  0  0  0
   -2.7644    1.3552   -0.0726 S   0  0  0  0  0
  1  3  1  0  0  0
  2  8  1  0  0  0
  4  9  1  0  0  0
  5 10  1  0  0  0
  6 21  1  0  0  0
  7 11  1  0  0  0
  7 12  1  0  0  0
  9 23  1  0  0  0
 11 22  1  0  0  0
 12 24  1  0  0  0
 13 14  1  0  0  0
 13 15  1  0  0  0
 14 16  1  0  0  0
 15 17  1  0  0  0
 16 18  1  0  0  0
 17 19  1  0  0  0
 18 22  1  0  0  0
 19 22  1  0  0  0
 20  8  1  0  0  0
 28 10  1  0  0  0
 28 23  1  0  0  0
  1  2  2  0  0  0
  3 10  2  0  0  0
  4  7  2  0  0  0
  5  8  2  0  0  0
  6  9  2  0  0  0
 11 21  2  0  0  0
 12 25  2  0  0  0
 28 26  2  0  0  0
 28 27  2  0  0  0
M  CHG  1  24  -1
M  END
> <rmsd>
0.510095179

$$$$
ZINC35397460


 28 30  0  0  0  0  0  0  0  0999 V2000
   -2.9156   -2.3209   -1.7596 C   0  0  0  0  0
   -3.5703   -2.5605    0.5537 C   0  0  0  0  0
   -2.7426   -0.9501   -1.5686 C   0  0  0  0  0
   -3.3972   -1.1897    0.7446 C   0  0  0  0  0
    0.8692    0.4553   -0.6665 C   0  0  0  0  0
   -0.0890    2.4178   -1.6084 C   0  0  0  0  0
    1.8279    0.4769   -1.6734 C   0  0  0  0  0
   -3.3295   -3.1261   -0.6984 C   0  0  0  0  0
   -0.1110    1.4407   -0.6263 C   0  0  0  0  0
   -2.9833   -0.3845   -0.3165 C   0  0  0  0  0
    1.7630    1.4971   -2.6087 C   0  0  0  0  0
    2.8651   -0.5681   -1.7139 C   0  0  0  0  0
    3.9970    0.9224   -5.5398 C   0  0  0  0  0
    4.5482    2.2190   -4.9822 C   0  0  0  0  0
    2.5989    0.8633   -4.9349 C   0  0  0  0  0
    4.0206    2.2215   -3.5521 C   0  0  0  0  0
   -5.3306   -4.3407   -2.6756 C   0  0  0  0  0
   -5.0451   -6.5211   -1.4807 C   0  0  0  0  0
   -3.5190   -4.6091   -0.9051 C   0  0  0  0  0
   -4.9424   -4.9996   -1.3495 C   0  0  0  0  0
    0.8260    2.4717   -2.6020 N   0  0  0  0  0
    2.7305    1.5254   -3.6312 N   0  0  0  0  0
   -1.1161    1.4452    0.4022 N   0  0  0  0  0
    2.6327   -1.6450   -2.3800 O   0  0  0  0  0
    3.9687   -0.3693   -1.0816 O   0  0  0  0  0
   -3.5955    1.7297    1.0552 O   0  0  0  0  0
   -2.9520    2.0081   -1.3548 O   0  0  0  0  0
   -2.7672    1.3314   -0.0768 S   0  0  0  0  0
  1  8  1  0  0  0
  2  4  1  0  0  0
  3 10  1  0  0  0
  5  9  1  0  0  0
  6 21  1  0  0  0
  7 11  1  0  0  0
  7 12  1  0  0  0
  9 23  1  0  0  0
 11 22  1  0  0  0
 12 24  1  0  0  0
 13 14  1  0  0  0
 13 15  1  0  0  0
 14 16  1  0  0  0
 15 22  1  0  0  0
 16 22  1  0  0  0
 17 20  1  0  0  0
 18 20  1  0  0  0
 19  8  1  0  0  0
 19 20  1  0  0  0
 28 10  1  0  0  0
 28 23  1  0  0  0
  1  3  2  0  0  0
  2  8  2  0  0  0
  4 10  2  0  0  0
  5  7  2  0  0  0
  6  9  2  0  0  0
 11 21  2  0  0  0
 12 25  2  0  0  0
 28 26  2  0  0  0
 28 27  2  0  0  0
M  CHG  1  24  -1
M  END
> <rmsd>
0.512594283

$$$$
ZINC35397460


 28 30  0  0  0  0  0  0  0  0999 V2000
   -2.4315   -2.2493   -1.7976 C   0  0  0  0  0
   -3.2709   -2.5857    0.4428 C   0  0  0  0  0
   -2.3869   -0.8732   -1.5743 C   0  0  0  0  0
   -3.2262   -1.2096    0.6661 C   0  0  0  0  0
    1.0044    0.7937   -0.3279 C   0  0  0  0  0
   -0.0191    2.6931   -1.3284 C   0  0  0  0  0
    2.0452    0.9107   -1.2425 C   0  0  0  0  0
   -2.8737   -3.1055   -0.7891 C   0  0  0  0  0
   -0.0512    1.6979   -0.3650 C   0  0  0  0  0
   -2.7842   -0.3533   -0.3424 C   0  0  0  0  0
    1.9834    1.9411   -2.1667 C   0  0  0  0  0
    3.1623   -0.0484   -1.2012 C   0  0  0  0  0
    4.5114    1.6024   -4.8883 C   0  0  0  0  0
    4.9044    2.9270   -4.2662 C   0  0  0  0  0
    3.0737    1.4215   -4.4146 C   0  0  0  0  0
    4.2515    2.8595   -2.8905 C   0  0  0  0  0
   -4.5844   -4.4342   -2.9563 C   0  0  0  0  0
   -4.2340   -6.6088   -1.7680 C   0  0  0  0  0
   -2.9242   -4.5945   -1.0311 C   0  0  0  0  0
   -4.2658   -5.0868   -1.6087 C   0  0  0  0  0
    0.9745    2.8386   -2.2335 N   0  0  0  0  0
    3.0337    2.0657   -3.0960 N   0  0  0  0  0
   -1.1421    1.6029    0.5673 N   0  0  0  0  0
    3.0780   -1.1268   -1.8993 O   0  0  0  0  0
    4.1848    0.2239   -0.4681 O   0  0  0  0  0
   -3.6851    1.6783    0.9942 O   0  0  0  0  0
   -2.8512    2.0545   -1.3430 O   0  0  0  0  0
   -2.7288    1.3691   -0.0622 S   0  0  0  0  0
  1  8  1  0  0  0
  2  4  1  0  0  0
  3 10  1  0  0  0
  5  9  1  0  0  0
  6 21  1  0  0  0
  7 11  1  0  0  0
  7 12  1  0  0  0
  9 23  1  0  0  0
 11 22  1  0  0  0
 12 24  1  0  0  0
 13 14  1  0  0  0
 13 15  1  0  0  0
 14 16  1  0  0  0
 15 22  1  0  0  0
 16 22  1  0  0  0
 17 20  1  0  0  0
 18 20  1  0  0  0
 19  8  1  0  0  0
 19 20  1  0  0  0
 28 10  1  0  0  0
 28 23  1  0  0  0
  1  3  2  0  0  0
  2  8  2  0  0  0
  4 10  2  0  0  0
  5  7  2  0  0  0
  6  9  2  0  0  0
 11 21  2  0  0  0
 12 25  2  0  0  0
 28 26  2  0  0  0
 28 27  2  0  0  0
M  CHG  1  24  -1
M  END
> <rmsd>
0.69467479

$$$$
ZINC35397616


 28 30  0  0  0  0  0  0  0  0999 V2000
   -2.9169   -2.3217   -1.7542 C   0  0  0  0  0
   -3.3301   -3.1262   -0.6923 C   0  0  0  0  0
   -2.7437   -0.9507   -1.5644 C   0  0  0  0  0
    0.8681    0.4573   -0.6599 C   0  0  0  0  0
   -3.3971   -1.1886    0.7494 C   0  0  0  0  0
   -0.0607    2.4525   -1.5617 C   0  0  0  0  0
    1.8376    0.4945   -1.6559 C   0  0  0  0  0
   -3.5701   -2.5597    0.5595 C   0  0  0  0  0
   -0.1027    1.4512   -0.6049 C   0  0  0  0  0
   -2.9838   -0.3841   -0.3126 C   0  0  0  0  0
    1.7926    1.5385   -2.5658 C   0  0  0  0  0
    2.8649   -0.5596   -1.7121 C   0  0  0  0  0
    2.4594    4.0174   -5.7035 C   0  0  0  0  0
    3.8213    4.2381   -5.0419 C   0  0  0  0  0
    2.3514    2.7395   -6.5382 C   0  0  0  0  0
    3.9118    3.7944   -3.5820 C   0  0  0  0  0
    1.7034    1.5530   -5.8249 C   0  0  0  0  0
    4.0377    2.2859   -3.3815 C   0  0  0  0  0
    2.6101    0.8386   -4.8253 C   0  0  0  0  0
   -4.0135   -3.4204    1.6941 C   0  0  0  0  0
    0.8653    2.5220   -2.5443 N   0  0  0  0  0
    2.7648    1.5824   -3.5707 N   0  0  0  0  0
   -1.1093    1.4402    0.4037 N   0  0  0  0  0
    2.6289   -1.6170   -2.4074 O   0  0  0  0  0
    3.9636   -0.3878   -1.0635 O   0  0  0  0  0
   -3.6008    1.7335    1.0516 O   0  0  0  0  0
   -2.9449    2.0062   -1.3556 O   0  0  0  0  0
   -2.7642    1.3556   -0.0721 S   0  0  0  0  0
  1  3  1  0  0  0
  2  8  1  0  0  0
  4  9  1  0  0  0
  5 10  1  0  0  0
  6 21  1  0  0  0
  7 11  1  0  0  0
  7 12  1  0  0  0
  9 23  1  0  0  0
 11 22  1  0  0  0
 12 24  1  0  0  0
 13 14  1  0  0  0
 13 15  1  0  0  0
 14 16  1  0  0  0
 15 17  1  0  0  0
 16 18  1  0  0  0
 17 19  1  0  0  0
 18 22  1  0  0  0
 19 22  1  0  0  0
 20  8  1  0  0  0
 28 10  1  0  0  0
 28 23  1  0  0  0
  1  2  2  0  0  0
  3 10  2  0  0  0
  4  7  2  0  0  0
  5  8  2  0  0  0
  6  9  2  0  0  0
 11 21  2  0  0  0
 12 25  2  0  0  0
 28 26  2  0  0  0
 28 27  2  0  0  0
M  CHG  1  24  -1
M  END
> <rmsd>
0.510247111

$$$$
ZINC35397616


 28 30  0  0  0  0  0  0  0  0999 V2000
   -2.4339   -2.2553   -1.7859 C   0  0  0  0  0
   -2.8803   -3.1081   -0.7763 C   0  0  0  0  0
   -2.3867   -0.8787   -1.5658 C   0  0  0  0  0
    1.0044    0.7854   -0.3099 C   0  0  0  0  0
   -3.2322   -1.2075    0.6734 C   0  0  0  0  0
    0.0109    2.7195   -1.2738 C   0  0  0  0  0
    2.0565    0.9147   -1.2096 C   0  0  0  0  0
   -3.2794   -2.5842    0.4533 C   0  0  0  0  0
   -0.0419    1.7009   -0.3360 C   0  0  0  0  0
   -2.7858   -0.3548   -0.3363 C   0  0  0  0  0
    2.0153    1.9683   -2.1085 C   0  0  0  0  0
    3.1637   -0.0565   -1.1800 C   0  0  0  0  0
    2.7762    4.5470   -5.1426 C   0  0  0  0  0
    4.0492    4.8595   -4.3532 C   0  0  0  0  0
    2.8464    3.2798   -5.9974 C   0  0  0  0  0
    4.0375    4.3979   -2.8961 C   0  0  0  0  0
    2.2292    2.0346   -5.3611 C   0  0  0  0  0
    4.2614    2.9001   -2.7008 C   0  0  0  0  0
    3.0918    1.3739   -4.2882 C   0  0  0  0  0
   -3.7580   -3.4966    1.5317 C   0  0  0  0  0
    1.0161    2.8773   -2.1640 N   0  0  0  0  0
    3.0704    2.1047   -3.0167 N   0  0  0  0  0
   -1.1341    1.5946    0.5730 N   0  0  0  0  0
    3.0767   -1.1161   -1.9057 O   0  0  0  0  0
    4.1804    0.1874   -0.4289 O   0  0  0  0  0
   -3.6904    1.6844    0.9863 O   0  0  0  0  0
   -2.8364    2.0498   -1.3454 O   0  0  0  0  0
   -2.7258    1.3920   -0.0576 S   0  0  0  0  0
  1  3  1  0  0  0
  2  8  1  0  0  0
  4  9  1  0  0  0
  5 10  1  0  0  0
  6 21  1  0  0  0
  7 11  1  0  0  0
  7 12  1  0  0  0
  9 23  1  0  0  0
 11 22  1  0  0  0
 12 24  1  0  0  0
 13 14  1  0  0  0
 13 15  1  0  0  0
 14 16  1  0  0  0
 15 17  1  0  0  0
 16 18  1  0  0  0
 17 19  1  0  0  0
 18 22  1  0  0  0
 19 22  1  0  0  0
 20  8  1  0  0  0
 28 10  1  0  0  0
 28 23  1  0  0  0
  1  2  2  0  0  0
  3 10  2  0  0  0
  4  7  2  0  0  0
  5  8  2  0  0  0
  6  9  2  0  0  0
 11 21  2  0  0  0
 12 25  2  0  0  0
 28 26  2  0  0  0
 28 27  2  0  0  0
M  CHG  1  24  -1
M  END
> <rmsd>
0.689216018

$$$$
ZINC35397650


 28 30  0  0  0  0  0  0  0  0999 V2000
   -3.5642   -2.5582    0.5534 C   0  0  0  0  0
   -3.3973   -1.1868    0.7434 C   0  0  0  0  0
    0.8679    0.4555   -0.6669 C   0  0  0  0  0
   -2.7433   -0.9499   -1.5667 C   0  0  0  0  0
   -0.0904    2.4176   -1.6096 C   0  0  0  0  0
    1.8263    0.4764   -1.6741 C   0  0  0  0  0
   -3.3147   -3.1421   -0.6977 C   0  0  0  0  0
   -2.9176   -2.3266   -1.7737 C   0  0  0  0  0
   -0.1122    1.4410   -0.6270 C   0  0  0  0  0
   -2.9847   -0.3834   -0.3155 C   0  0  0  0  0
    1.7612    1.4960   -2.6100 C   0  0  0  0  0
    2.8633   -0.5688   -1.7142 C   0  0  0  0  0
   -3.5390   -4.6235   -0.8723 C   0  0  0  0  0
   -2.6145   -2.9069   -3.1327 C   0  0  0  0  0
   -2.8846   -5.1885   -2.1317 C   0  0  0  0  0
   -3.1940   -4.3058   -3.3339 C   0  0  0  0  0
    1.7921    1.7112   -5.8634 C   0  0  0  0  0
    3.7741    3.7106   -3.7186 C   0  0  0  0  0
    2.4946    0.8314   -4.8861 C   0  0  0  0  0
    3.9677    2.2562   -3.4548 C   0  0  0  0  0
    0.8243    2.4706   -2.6037 N   0  0  0  0  0
   -1.1169    1.4462    0.4019 N   0  0  0  0  0
    2.7349    1.5237   -3.6398 N   0  0  0  0  0
    2.6307   -1.6460   -2.3796 O   0  0  0  0  0
    3.9672   -0.3697   -1.0824 O   0  0  0  0  0
   -3.5961    1.7314    1.0553 O   0  0  0  0  0
   -2.9532    2.0086   -1.3549 O   0  0  0  0  0
   -2.7683    1.3324   -0.0767 S   0  0  0  0  0
  1  7  1  0  0  0
  2 10  1  0  0  0
  3  9  1  0  0  0
  4  8  1  0  0  0
  5 21  1  0  0  0
  6 11  1  0  0  0
  6 12  1  0  0  0
  9 22  1  0  0  0
 11 23  1  0  0  0
 12 24  1  0  0  0
 13  7  1  0  0  0
 13 15  1  0  0  0
 14  8  1  0  0  0
 14 16  1  0  0  0
 15 16  1  0  0  0
 17 19  1  0  0  0
 18 20  1  0  0  0
 19 23  1  0  0  0
 20 23  1  0  0  0
 28 10  1  0  0  0
 28 22  1  0  0  0
  1  2  2  0  0  0
  3  6  2  0  0  0
  4 10  2  0  0  0
  5  9  2  0  0  0
  7  8  2  0  0  0
 11 21  2  0  0  0
 12 25  2  0  0  0
 28 26  2  0  0  0
 28 27  2  0  0  0
M  CHG  1  24  -1
M  END
> <rmsd>
0.515152037

$$$$
ZINC35397650


 28 30  0  0  0  0  0  0  0  0999 V2000
   -3.2648   -2.5829    0.4428 C   0  0  0  0  0
   -3.2263   -1.2068    0.6647 C   0  0  0  0  0
    1.0033    0.7940   -0.3284 C   0  0  0  0  0
   -2.3876   -0.8729   -1.5726 C   0  0  0  0  0
   -0.0202    2.6930   -1.3297 C   0  0  0  0  0
    2.0439    0.9103   -1.2433 C   0  0  0  0  0
   -2.8575   -3.1203   -0.7877 C   0  0  0  0  0
   -2.4317   -2.2547   -1.8123 C   0  0  0  0  0
   -0.0522    1.6983   -0.3658 C   0  0  0  0  0
   -2.7855   -0.3523   -0.3417 C   0  0  0  0  0
    1.9819    1.9401   -2.1682 C   0  0  0  0  0
    3.1608   -0.0490   -1.2017 C   0  0  0  0  0
   -2.9457   -4.6109   -1.0009 C   0  0  0  0  0
   -1.9616   -2.7820   -3.1451 C   0  0  0  0  0
   -2.1372   -5.0973   -2.2022 C   0  0  0  0  0
   -2.4066   -4.2179   -3.4164 C   0  0  0  0  0
    2.2887    2.2222   -5.4021 C   0  0  0  0  0
    3.9025    4.3280   -3.0596 C   0  0  0  0  0
    2.9685    1.3811   -4.3759 C   0  0  0  0  0
    4.1875    2.8884   -2.7978 C   0  0  0  0  0
    0.9732    2.8377   -2.2352 N   0  0  0  0  0
   -1.1428    1.6039    0.5669 N   0  0  0  0  0
    3.0391    2.0650   -3.1041 N   0  0  0  0  0
    3.0762   -1.1276   -1.8993 O   0  0  0  0  0
    4.1836    0.2237   -0.4691 O   0  0  0  0  0
   -3.6857    1.6800    0.9944 O   0  0  0  0  0
   -2.8523    2.0550   -1.3432 O   0  0  0  0  0
   -2.7298    1.3700   -0.0622 S   0  0  0  0  0
  1  7  1  0  0  0
  2 10  1  0  0  0
  3  9  1  0  0  0
  4  8  1  0  0  0
  5 21  1  0  0  0
  6 11  1  0  0  0
  6 12  1  0  0  0
  9 22  1  0  0  0
 11 23  1  0  0  0
 12 24  1  0  0  0
 13  7  1  0  0  0
 13 15  1  0  0  0
 14  8  1  0  0  0
 14 16  1  0  0  0
 15 16  1  0  0  0
 17 19  1  0  0  0
 18 20  1  0  0  0
 19 23  1  0  0  0
 20 23  1  0  0  0
 28 10  1  0  0  0
 28 22  1  0  0  0
  1  2  2  0  0  0
  3  6  2  0  0  0
  4 10  2  0  0  0
  5  9  2  0  0  0
  7  8  2  0  0  0
 11 21  2  0  0  0
 12 25  2  0  0  0
 28 26  2  0  0  0
 28 27  2  0  0  0
M  CHG  1  24  -1
M  END
> <rmsd>
0.697535634

$$$$
ZINC16940396


 27 29  0  0  0  0  0  0  0  0999 V2000
   -4.0734   -1.0878    0.3386 C   0  0  0  0  0
   -2.5009   -2.3036   -0.3775 C   0  0  0  0  0
   -2.1219   -1.0157   -0.6696 C   0  0  0  0  0
   -1.6335   -3.3898   -0.7409 C   0  0  0  0  0
   -0.1855   -1.5510   -1.6241 C   0  0  0  0  0
   -2.3702    3.3420    0.2805 C   0  0  0  0  0
   -1.9157    1.9697   -0.1790 C   0  0  0  0  0
   -3.6351    3.0665    1.1000 C   0  0  0  0  0
   -3.2387    1.2159   -0.2639 C   0  0  0  0  0
    0.5411    0.7205   -3.5576 C   0  0  0  0  0
    1.7907    0.8387   -1.3564 C   0  0  0  0  0
   -3.4237    3.1846    2.6018 C   0  0  0  0  0
    1.4957    0.0025   -2.6025 C   0  0  0  0  0
   -3.7115   -2.3526    0.2480 N   0  0  0  0  0
   -0.9991   -0.5764   -1.2798 N   0  0  0  0  0
   -3.1411   -0.2379   -0.2044 N   0  0  0  0  0
   -0.4760   -2.9127   -1.3717 N   0  0  0  0  0
    0.9890   -1.3170   -2.2440 N   0  0  0  0  0
    2.6677   -1.3230   -4.6509 O   0  0  0  0  0
    3.9534   -1.1181   -2.4258 O   0  0  0  0  0
   -1.8869   -4.5673   -0.5203 O   0  0  0  0  0
    3.6448    0.9493   -3.9313 O   0  0  0  0  0
   -4.0511    1.7171    0.8092 O   0  0  0  0  0
   -2.7205    4.1030   -0.8742 O   0  0  0  0  0
   -1.0367    1.4093    0.7883 O   0  0  0  0  0
   -2.9823    4.4989    2.9003 O   0  0  0  0  0
    3.1354   -0.4249   -3.5104 P   0  0  0  0  0
  1 16  1  0  0  0
  2  4  1  0  0  0
  2 14  1  0  0  0
  3 15  1  0  0  0
  3 16  1  0  0  0
  4 17  1  0  0  0
  5 17  1  0  0  0
  5 18  1  0  0  0
  6  7  1  0  0  0
  6  8  1  0  0  0
  6 24  1  0  0  0
  7  9  1  0  0  0
  7 25  1  0  0  0
  8 12  1  0  0  0
  8 23  1  0  0  0
  9 16  1  0  0  0
  9 23  1  0  0  0
 10 13  1  0  0  0
 11 13  1  0  0  0
 12 26  1  0  0  0
 13 18  1  0  0  0
 13 27  1  0  0  0
 27 19  1  0  0  0
 27 20  1  0  0  0
  1 14  2  0  0  0
  2  3  2  0  0  0
  4 21  2  0  0  0
  5 15  2  0  0  0
 27 22  2  0  0  0
M  CHG  2  19  -1  20  -1
M  END
> <rmsd>
0.545935035

$$$$
ZINC16925065


 28 30  0  0  0  0  0  0  0  0999 V2000
   -3.3341   -1.0954    0.5306 C   0  0  0  0  0
   -4.1272   -1.5562   -1.7045 C   0  0  0  0  0
    0.3868   -0.3017    1.6172 C   0  0  0  0  0
    1.3119   -1.3446    1.6628 C   0  0  0  0  0
   -3.5140   -2.4361    0.8709 C   0  0  0  0  0
   -4.3071   -2.8970   -1.3642 C   0  0  0  0  0
    1.2856    0.4025   -0.5120 C   0  0  0  0  0
    2.2107   -0.6405   -0.4664 C   0  0  0  0  0
   -3.6408   -0.6555   -0.7571 C   0  0  0  0  0
    0.3736    0.5719    0.5297 C   0  0  0  0  0
    2.2238   -1.5140    0.6210 C   0  0  0  0  0
   -4.0005   -3.3369   -0.0765 C   0  0  0  0  0
   -3.5777    1.7488   -0.1588 C   0  0  0  0  0
   -3.1585    1.1153   -2.4099 C   0  0  0  0  0
    3.1662   -0.8060   -1.5760 C   0  0  0  0  0
   -0.7182    2.5858   -0.5163 C   0  0  0  0  0
   -3.1900    3.0940   -0.7268 C   0  0  0  0  0
   -1.8488    3.5434   -0.1707 C   0  0  0  0  0
   -3.4544    0.7277   -1.1085 N   0  0  0  0  0
   -0.5653    1.6298    0.4839 N   0  0  0  0  0
    3.1196    0.0219   -2.5603 O   0  0  0  0  0
   -3.9680    1.6522    1.0025 O   0  0  0  0  0
   -2.9121    0.4295   -3.3909 O   0  0  0  0  0
    4.0140   -1.7729   -1.5225 O   0  0  0  0  0
   -0.0676    2.6935   -1.5504 O   0  0  0  0  0
    3.1200   -2.5388    0.6835 O   0  0  0  0  0
   -4.1727   -4.6243    0.2499 F   0  0  0  0  0
   -3.0993    2.8662   -2.5121 S   0  0  0  0  0
  1  5  1  0  0  0
  2  9  1  0  0  0
  3 10  1  0  0  0
  4 11  1  0  0  0
  6 12  1  0  0  0
  7  8  1  0  0  0
  8 15  1  0  0  0
  9 19  1  0  0  0
 10 20  1  0  0  0
 11 26  1  0  0  0
 12 27  1  0  0  0
 13 19  1  0  0  0
 14 19  1  0  0  0
 14 28  1  0  0  0
 15 21  1  0  0  0
 16 20  1  0  0  0
 17 13  1  0  0  0
 17 18  1  0  0  0
 17 28  1  0  0  0
 18 16  1  0  0  0
  1  9  2  0  0  0
  2  6  2  0  0  0
  3  4  2  0  0  0
  5 12  2  0  0  0
  7 10  2  0  0  0
  8 11  2  0  0  0
 13 22  2  0  0  0
 14 23  2  0  0  0
 15 24  2  0  0  0
 16 25  2  0  0  0
M  CHG  1  21  -1
M  END
> <rmsd>
0.330579847

$$$$
ZINC16926211


 28 30  0  0  0  0  0  0  0  0999 V2000
   -3.3055   -1.0761    0.4567 C   0  0  0  0  0
   -4.2001   -1.4382   -1.7581 C   0  0  0  0  0
    2.2737   -1.1746    0.1944 C   0  0  0  0  0
   -3.3954   -2.4436    0.7166 C   0  0  0  0  0
   -4.2899   -2.8057   -1.4983 C   0  0  0  0  0
    1.4224   -1.1355    1.2986 C   0  0  0  0  0
    1.1548    0.7538   -0.7364 C   0  0  0  0  0
   -3.7080   -0.5734   -0.7806 C   0  0  0  0  0
    0.3035    0.7929    0.3678 C   0  0  0  0  0
    2.1400   -0.2299   -0.8231 C   0  0  0  0  0
   -3.8875   -3.3085   -0.2609 C   0  0  0  0  0
    0.4372   -0.1518    1.3853 C   0  0  0  0  0
   -3.7369    1.7878   -0.0283 C   0  0  0  0  0
   -3.4144    1.3228   -2.3357 C   0  0  0  0  0
   -0.9503    2.8047   -0.4823 C   0  0  0  0  0
   -3.4534    3.1859   -0.5258 C   0  0  0  0  0
   -2.1080    3.6736   -0.0138 C   0  0  0  0  0
   -3.6147    0.8375   -1.0489 N   0  0  0  0  0
   -0.6906    1.7974    0.4427 N   0  0  0  0  0
    3.0077   -0.2695   -1.9466 N   0  0  0  0  0
    3.8875   -1.1623   -2.0040 O   0  0  0  0  0
   -4.0547    1.5962    1.1433 O   0  0  0  0  0
   -3.1888    0.7153   -3.3718 O   0  0  0  0  0
   -0.3665    3.0140   -1.5403 O   0  0  0  0  0
    2.8705    0.5891   -2.8512 O   0  0  0  0  0
   -3.9752   -4.6426   -0.0071 O   0  0  0  0  0
   -0.3844   -0.1311    2.4726 O   0  0  0  0  0
   -3.4530    3.0772   -2.3245 S   0  0  0  0  0
  1  4  1  0  0  0
  2  8  1  0  0  0
  3 10  1  0  0  0
  5 11  1  0  0  0
  6 12  1  0  0  0
  7  9  1  0  0  0
  8 18  1  0  0  0
  9 19  1  0  0  0
 10 20  1  0  0  0
 11 26  1  0  0  0
 12 27  1  0  0  0
 13 18  1  0  0  0
 14 18  1  0  0  0
 14 28  1  0  0  0
 15 19  1  0  0  0
 16 13  1  0  0  0
 16 17  1  0  0  0
 16 28  1  0  0  0
 17 15  1  0  0  0
 20 21  1  0  0  0
  1  8  2  0  0  0
  2  5  2  0  0  0
  3  6  2  0  0  0
  4 11  2  0  0  0
  7 10  2  0  0  0
  9 12  2  0  0  0
 13 22  2  0  0  0
 14 23  2  0  0  0
 15 24  2  0  0  0
 20 25  2  0  0  0
M  CHG  2  20   1  21  -1
M  END
> <rmsd>
0.400849074

$$$$
ZINC16926052


 28 30  0  0  0  0  0  0  0  0999 V2000
   -4.2906   -2.8058   -1.4977 C   0  0  0  0  0
   -4.2003   -1.4384   -1.7575 C   0  0  0  0  0
    2.2741   -1.1746    0.1949 C   0  0  0  0  0
   -3.8882   -3.3088   -0.2605 C   0  0  0  0  0
    1.4228   -1.1355    1.2991 C   0  0  0  0  0
   -3.3051   -1.0767    0.4572 C   0  0  0  0  0
    1.1551    0.7536   -0.7361 C   0  0  0  0  0
   -3.7076   -0.5738   -0.7801 C   0  0  0  0  0
    0.3038    0.7928    0.3681 C   0  0  0  0  0
    2.1403   -0.2300   -0.8227 C   0  0  0  0  0
   -3.3954   -2.4442    0.7170 C   0  0  0  0  0
    0.4376   -0.1519    1.3857 C   0  0  0  0  0
   -3.7367    1.7874   -0.0279 C   0  0  0  0  0
   -3.4141    1.3223   -2.3353 C   0  0  0  0  0
   -0.9501    2.8044   -0.4820 C   0  0  0  0  0
   -3.4532    3.1855   -0.5255 C   0  0  0  0  0
   -2.1078    3.6733   -0.0135 C   0  0  0  0  0
   -3.6144    0.8371   -1.0485 N   0  0  0  0  0
   -0.6903    1.7972    0.4430 N   0  0  0  0  0
    3.0081   -0.2696   -1.9462 N   0  0  0  0  0
    3.8879   -1.1624   -2.0036 O   0  0  0  0  0
   -4.0544    1.5959    1.1437 O   0  0  0  0  0
   -3.1885    0.7148   -3.3714 O   0  0  0  0  0
   -0.3663    3.0138   -1.5401 O   0  0  0  0  0
    2.8708    0.5889   -2.8509 O   0  0  0  0  0
   -3.0028   -2.9353    1.9243 O   0  0  0  0  0
   -0.3840   -0.1311    2.4730 O   0  0  0  0  0
   -3.4528    3.0767   -2.3242 S   0  0  0  0  0
  1  2  1  0  0  0
  3 10  1  0  0  0
  4 11  1  0  0  0
  5 12  1  0  0  0
  6  8  1  0  0  0
  7  9  1  0  0  0
  8 18  1  0  0  0
  9 19  1  0  0  0
 10 20  1  0  0  0
 11 26  1  0  0  0
 12 27  1  0  0  0
 13 18  1  0  0  0
 14 18  1  0  0  0
 14 28  1  0  0  0
 15 19  1  0  0  0
 16 13  1  0  0  0
 16 17  1  0  0  0
 16 28  1  0  0  0
 17 15  1  0  0  0
 20 21  1  0  0  0
  1  4  2  0  0  0
  2  8  2  0  0  0
  3  5  2  0  0  0
  6 11  2  0  0  0
  7 10  2  0  0  0
  9 12  2  0  0  0
 13 22  2  0  0  0
 14 23  2  0  0  0
 15 24  2  0  0  0
 20 25  2  0  0  0
M  CHG  2  20   1  21  -1
M  END
> <rmsd>
0.400664032

$$$$
ZINC16926052


 28 30  0  0  0  0  0  0  0  0999 V2000
   -3.3952   -2.4428    0.7173 C   0  0  0  0  0
   -3.3049   -1.0755    0.4569 C   0  0  0  0  0
    2.2743   -1.1740    0.1945 C   0  0  0  0  0
   -3.8879   -3.3078   -0.2599 C   0  0  0  0  0
    1.4230   -1.1350    1.2987 C   0  0  0  0  0
   -4.2001   -1.4380   -1.7576 C   0  0  0  0  0
    1.1554    0.7543   -0.7363 C   0  0  0  0  0
   -3.7073   -0.5731   -0.7805 C   0  0  0  0  0
    0.3041    0.7934    0.3679 C   0  0  0  0  0
    2.1406   -0.2294   -0.8230 C   0  0  0  0  0
   -4.2904   -2.8054   -1.4973 C   0  0  0  0  0
    0.4379   -0.1513    1.3854 C   0  0  0  0  0
   -3.7364    1.7882   -0.0282 C   0  0  0  0  0
   -3.4138    1.3231   -2.3356 C   0  0  0  0  0
   -0.9498    2.8051   -0.4822 C   0  0  0  0  0
   -3.4529    3.1863   -0.5257 C   0  0  0  0  0
   -2.1075    3.6740   -0.0137 C   0  0  0  0  0
   -3.6142    0.8379   -1.0488 N   0  0  0  0  0
   -0.6901    1.7978    0.4428 N   0  0  0  0  0
    3.0083   -0.2689   -1.9465 N   0  0  0  0  0
    3.8881   -1.1617   -2.0039 O   0  0  0  0  0
   -4.0541    1.5966    1.1434 O   0  0  0  0  0
   -3.1883    0.7157   -3.3717 O   0  0  0  0  0
   -0.3659    3.0145   -1.5403 O   0  0  0  0  0
    2.8711    0.5896   -2.8511 O   0  0  0  0  0
   -4.7712   -3.6497   -2.4506 O   0  0  0  0  0
   -0.3837   -0.1306    2.4727 O   0  0  0  0  0
   -3.4525    3.0775   -2.3244 S   0  0  0  0  0
  1  2  1  0  0  0
  3 10  1  0  0  0
  4 11  1  0  0  0
  5 12  1  0  0  0
  6  8  1  0  0  0
  7  9  1  0  0  0
  8 18  1  0  0  0
  9 19  1  0  0  0
 10 20  1  0  0  0
 11 26  1  0  0  0
 12 27  1  0  0  0
 13 18  1  0  0  0
 14 18  1  0  0  0
 14 28  1  0  0  0
 15 19  1  0  0  0
 16 13  1  0  0  0
 16 17  1  0  0  0
 16 28  1  0  0  0
 17 15  1  0  0  0
 20 21  1  0  0  0
  1  4  2  0  0  0
  2  8  2  0  0  0
  3  5  2  0  0  0
  6 11  2  0  0  0
  7 10  2  0  0  0
  9 12  2  0  0  0
 13 22  2  0  0  0
 14 23  2  0  0  0
 15 24  2  0  0  0
 20 25  2  0  0  0
M  CHG  2  20   1  21  -1
M  END
> <rmsd>
0.400681138

$$$$
ZINC02455808


 28 30  0  0  0  0  0  0  0  0999 V2000
   -3.1903   -2.4056    0.7653 C   0  0  0  0  0
   -3.0322   -1.0627    0.4543 C   0  0  0  0  0
    2.2002    1.2836   -1.9070 C   0  0  0  0  0
    1.5592    2.5172   -1.7934 C   0  0  0  0  0
   -2.8310    0.1123   -3.5624 C   0  0  0  0  0
   -2.7373    1.0794   -2.5694 C   0  0  0  0  0
    0.6399    0.3276   -0.3295 C   0  0  0  0  0
   -3.2744   -3.2980   -0.2840 C   0  0  0  0  0
   -2.9630   -0.6525   -0.8839 C   0  0  0  0  0
   -3.0587   -1.6398   -1.8869 C   0  0  0  0  0
   -0.0012    1.5612   -0.2159 C   0  0  0  0  0
    1.7405    0.1888   -1.1751 C   0  0  0  0  0
   -2.9900   -1.2318   -3.2162 C   0  0  0  0  0
    0.4585    2.6561   -0.9480 C   0  0  0  0  0
   -2.8030    0.6995   -1.2320 C   0  0  0  0  0
   -1.8533   -3.6725   -5.6071 C   0  0  0  0  0
    0.3278    4.7607    0.1517 C   0  0  0  0  0
   -1.9650   -2.2483   -5.1061 C   0  0  0  0  0
   -3.2123   -2.9438   -1.5881 N   0  0  0  0  0
   -1.1337    1.6894    0.6612 N   0  0  0  0  0
    2.3928   -1.0671   -1.2911 N   0  0  0  0  0
    3.3808   -1.1706   -2.0575 O   0  0  0  0  0
    1.9637   -2.0392   -0.6236 O   0  0  0  0  0
   -3.6940    1.7361    0.9720 O   0  0  0  0  0
   -2.6675    3.2573   -0.7401 O   0  0  0  0  0
   -0.1547    3.8693   -0.8512 O   0  0  0  0  0
   -3.0773   -2.1536   -4.2218 O   0  0  0  0  0
   -2.6776    1.9828   -0.0394 S   0  0  0  0  0
  1  8  1  0  0  0
  2  9  1  0  0  0
  3 12  1  0  0  0
  4 14  1  0  0  0
  5 13  1  0  0  0
  6 15  1  0  0  0
  7 11  1  0  0  0
  9 10  1  0  0  0
 10 19  1  0  0  0
 11 20  1  0  0  0
 12 21  1  0  0  0
 13 27  1  0  0  0
 14 26  1  0  0  0
 16 18  1  0  0  0
 17 26  1  0  0  0
 18 27  1  0  0  0
 21 22  1  0  0  0
 28 15  1  0  0  0
 28 20  1  0  0  0
  1  2  2  0  0  0
  3  4  2  0  0  0
  5  6  2  0  0  0
  7 12  2  0  0  0
  8 19  2  0  0  0
  9 15  2  0  0  0
 10 13  2  0  0  0
 11 14  2  0  0  0
 21 23  2  0  0  0
 28 24  2  0  0  0
 28 25  2  0  0  0
M  CHG  2  21   1  22  -1
M  END
> <rmsd>
0.590776443

$$$$
ZINC02455808


 28 30  0  0  0  0  0  0  0  0999 V2000
   -3.1908   -2.4059    0.7653 C   0  0  0  0  0
   -3.0326   -1.0631    0.4542 C   0  0  0  0  0
    2.1998    1.2832   -1.9071 C   0  0  0  0  0
    1.5587    2.5168   -1.7936 C   0  0  0  0  0
   -2.8314    0.1119   -3.5625 C   0  0  0  0  0
   -2.7377    1.0790   -2.5695 C   0  0  0  0  0
    0.6395    0.3272   -0.3296 C   0  0  0  0  0
   -3.2749   -3.2984   -0.2840 C   0  0  0  0  0
   -2.9635   -0.6529   -0.8840 C   0  0  0  0  0
   -3.0591   -1.6402   -1.8869 C   0  0  0  0  0
   -0.0016    1.5608   -0.2160 C   0  0  0  0  0
    1.7400    0.1884   -1.1752 C   0  0  0  0  0
   -2.9905   -1.2322   -3.2162 C   0  0  0  0  0
    0.4581    2.6557   -0.9481 C   0  0  0  0  0
   -2.8034    0.6992   -1.2320 C   0  0  0  0  0
   -5.0105   -3.2461   -5.1141 C   0  0  0  0  0
    0.3831    4.9310   -1.6361 C   0  0  0  0  0
   -4.1516   -1.9999   -5.1445 C   0  0  0  0  0
   -3.2127   -2.9441   -1.5881 N   0  0  0  0  0
   -1.1341    1.6891    0.6611 N   0  0  0  0  0
    2.3923   -1.0675   -1.2912 N   0  0  0  0  0
    3.3803   -1.1710   -2.0577 O   0  0  0  0  0
    1.9632   -2.0396   -0.6237 O   0  0  0  0  0
   -3.6944    1.7357    0.9719 O   0  0  0  0  0
   -2.6679    3.2570   -0.7402 O   0  0  0  0  0
   -0.1551    3.8689   -0.8513 O   0  0  0  0  0
   -3.0778   -2.1540   -4.2218 O   0  0  0  0  0
   -2.6780    1.9825   -0.0395 S   0  0  0  0  0
  1  8  1  0  0  0
  2  9  1  0  0  0
  3 12  1  0  0  0
  4 14  1  0  0  0
  5 13  1  0  0  0
  6 15  1  0  0  0
  7 11  1  0  0  0
  9 10  1  0  0  0
 10 19  1  0  0  0
 11 20  1  0  0  0
 12 21  1  0  0  0
 13 27  1  0  0  0
 14 26  1  0  0  0
 16 18  1  0  0  0
 17 26  1  0  0  0
 18 27  1  0  0  0
 21 22  1  0  0  0
 28 15  1  0  0  0
 28 20  1  0  0  0
  1  2  2  0  0  0
  3  4  2  0  0  0
  5  6  2  0  0  0
  7 12  2  0  0  0
  8 19  2  0  0  0
  9 15  2  0  0  0
 10 13  2  0  0  0
 11 14  2  0  0  0
 21 23  2  0  0  0
 28 24  2  0  0  0
 28 25  2  0  0  0
M  CHG  2  21   1  22  -1
M  END
> <rmsd>
0.590812385

$$$$
ZINC32962235


 28 30  0  0  0  0  0  0  0  0999 V2000
   -3.2468   -2.5873    0.4352 C   0  0  0  0  0
   -2.4255   -2.2397   -1.8102 C   0  0  0  0  0
    1.0213    2.8844   -2.1906 C   0  0  0  0  0
   -0.0381    2.7673   -1.2909 C   0  0  0  0  0
   -3.2069   -1.2117    0.6627 C   0  0  0  0  0
   -2.3856   -0.8641   -1.5827 C   0  0  0  0  0
    0.9960    0.8073   -0.3285 C   0  0  0  0  0
   -2.8560   -3.1013   -0.8014 C   0  0  0  0  0
    2.0554    0.9244   -1.2284 C   0  0  0  0  0
    2.0680    1.9629   -2.1594 C   0  0  0  0  0
   -0.0508    1.7287   -0.3597 C   0  0  0  0  0
   -2.7764   -0.3501   -0.3462 C   0  0  0  0  0
   -2.8979   -4.5355   -1.0383 C   0  0  0  0  0
    3.1497   -0.0633   -1.1740 C   0  0  0  0  0
    4.2775    2.9142   -2.6774 C   0  0  0  0  0
    2.8520    2.0482   -4.5116 C   0  0  0  0  0
    5.4858    2.5381   -3.5274 C   0  0  0  0  0
    4.1365    1.7187   -5.2641 C   0  0  0  0  0
   -2.6842   -5.4398    0.1407 C   0  0  0  0  0
    3.1208    2.0977   -3.0703 N   0  0  0  0  0
   -1.1353    1.6092    0.5610 N   0  0  0  0  0
    3.0537   -1.1296   -1.8871 O   0  0  0  0  0
   -3.0908   -5.0651   -2.1347 O   0  0  0  0  0
    4.1601    0.1771   -0.4151 O   0  0  0  0  0
   -3.6861    1.6728    0.9978 O   0  0  0  0  0
   -2.8579    2.0602   -1.3397 O   0  0  0  0  0
    5.1701    2.6392   -4.9159 O   0  0  0  0  0
   -2.7291    1.3954   -0.0571 S   0  0  0  0  0
  1  8  1  0  0  0
  2  6  1  0  0  0
  3 10  1  0  0  0
  4 11  1  0  0  0
  5 12  1  0  0  0
  7  9  1  0  0  0
  8 13  1  0  0  0
  9 14  1  0  0  0
 10 20  1  0  0  0
 11 21  1  0  0  0
 14 22  1  0  0  0
 15 17  1  0  0  0
 15 20  1  0  0  0
 16 18  1  0  0  0
 16 20  1  0  0  0
 17 27  1  0  0  0
 18 27  1  0  0  0
 19 13  1  0  0  0
 28 12  1  0  0  0
 28 21  1  0  0  0
  1  5  2  0  0  0
  2  8  2  0  0  0
  3  4  2  0  0  0
  6 12  2  0  0  0
  7 11  2  0  0  0
  9 10  2  0  0  0
 13 23  2  0  0  0
 14 24  2  0  0  0
 28 25  2  0  0  0
 28 26  2  0  0  0
M  CHG  1  22  -1
M  END
> <rmsd>
0.705867231

$$$$
ZINC32962235


 28 30  0  0  0  0  0  0  0  0999 V2000
   -3.5420   -2.5647    0.5413 C   0  0  0  0  0
   -2.9112   -2.3081   -1.7768 C   0  0  0  0  0
    0.8694    2.5248   -2.5711 C   0  0  0  0  0
   -0.1066    2.5015   -1.5747 C   0  0  0  0  0
   -3.3749   -1.1941    0.7385 C   0  0  0  0  0
   -2.7441   -0.9374   -1.5796 C   0  0  0  0  0
    0.8592    0.4773   -0.6762 C   0  0  0  0  0
   -3.3101   -3.1218   -0.7164 C   0  0  0  0  0
    1.8351    0.5007   -1.6726 C   0  0  0  0  0
    1.8402    1.5244   -2.6200 C   0  0  0  0  0
   -0.1116    1.4777   -0.6273 C   0  0  0  0  0
   -2.9761   -0.3803   -0.3219 C   0  0  0  0  0
   -3.4845   -4.5509   -0.9216 C   0  0  0  0  0
    2.8502   -0.5691   -1.7017 C   0  0  0  0  0
    4.0579    2.2934   -3.3586 C   0  0  0  0  0
    2.4037    1.5213   -5.0360 C   0  0  0  0  0
    5.1482    1.8140   -4.3101 C   0  0  0  0  0
    3.5824    1.0835   -5.8983 C   0  0  0  0  0
   -3.2312   -5.4557    0.2491 C   0  0  0  0  0
    2.8099    1.5659   -3.6271 N   0  0  0  0  0
   -1.1108    1.4542    0.3922 N   0  0  0  0  0
    2.6058   -1.6326   -2.3829 O   0  0  0  0  0
   -3.8199   -5.0761   -1.9854 O   0  0  0  0  0
    3.9431   -0.4002   -1.0446 O   0  0  0  0  0
   -3.5967    1.7228    1.0629 O   0  0  0  0  0
   -2.9646    2.0175   -1.3482 O   0  0  0  0  0
    4.7121    1.9238   -5.6649 O   0  0  0  0  0
   -2.7674    1.3592   -0.0710 S   0  0  0  0  0
  1  8  1  0  0  0
  2  6  1  0  0  0
  3 10  1  0  0  0
  4 11  1  0  0  0
  5 12  1  0  0  0
  7  9  1  0  0  0
  8 13  1  0  0  0
  9 14  1  0  0  0
 10 20  1  0  0  0
 11 21  1  0  0  0
 14 22  1  0  0  0
 15 17  1  0  0  0
 15 20  1  0  0  0
 16 18  1  0  0  0
 16 20  1  0  0  0
 17 27  1  0  0  0
 18 27  1  0  0  0
 19 13  1  0  0  0
 28 12  1  0  0  0
 28 21  1  0  0  0
  1  5  2  0  0  0
  2  8  2  0  0  0
  3  4  2  0  0  0
  6 12  2  0  0  0
  7 11  2  0  0  0
  9 10  2  0  0  0
 13 23  2  0  0  0
 14 24  2  0  0  0
 28 25  2  0  0  0
 28 26  2  0  0  0
M  CHG  1  22  -1
M  END
> <rmsd>
0.525028408

$$$$
ZINC32971222


 28 30  0  0  0  0  0  0  0  0999 V2000
    1.9423    1.5934   -2.4788 C   0  0  0  0  0
   -2.7507   -2.2960   -1.7934 C   0  0  0  0  0
   -3.4417   -2.5788    0.5044 C   0  0  0  0  0
    1.0431    2.6556   -2.3848 C   0  0  0  0  0
   -2.6251   -0.9223   -1.5864 C   0  0  0  0  0
   -3.3160   -1.2052    0.7113 C   0  0  0  0  0
    0.8209    0.4822   -0.6499 C   0  0  0  0  0
   -3.1591   -3.1243   -0.7479 C   0  0  0  0  0
    1.8311    0.5067   -1.6114 C   0  0  0  0  0
    0.0328    2.6311   -1.4234 C   0  0  0  0  0
   -0.0784    1.5444   -0.5560 C   0  0  0  0  0
   -2.9077   -0.3769   -0.3342 C   0  0  0  0  0
   -3.2897   -4.5565   -0.9639 C   0  0  0  0  0
    2.7801   -0.6140   -1.7111 C   0  0  0  0  0
   -1.1616    4.4459   -2.5788 C   0  0  0  0  0
   -0.9556    4.4882   -0.1087 C   0  0  0  0  0
   -2.4761    5.2007   -2.4163 C   0  0  0  0  0
   -2.2810    5.2413   -0.0780 C   0  0  0  0  0
   -3.6572   -5.0190   -2.3439 C   0  0  0  0  0
   -0.8584    3.7062   -1.3460 N   0  0  0  0  0
   -1.1062    1.4971    0.4380 N   0  0  0  0  0
    2.6561   -1.6053   -0.8982 O   0  0  0  0  0
   -3.1264   -5.4193   -0.0985 O   0  0  0  0  0
    3.7034   -0.5665   -2.6077 O   0  0  0  0  0
   -3.6126    1.7067    1.0397 O   0  0  0  0  0
   -2.9221    2.0244   -1.3524 O   0  0  0  0  0
   -2.4344    6.0316   -1.2563 O   0  0  0  0  0
   -2.7450    1.3660   -0.0724 S   0  0  0  0  0
  1  9  1  0  0  0
  2  8  1  0  0  0
  3  6  1  0  0  0
  4 10  1  0  0  0
  5 12  1  0  0  0
  7 11  1  0  0  0
  8 13  1  0  0  0
  9 14  1  0  0  0
 10 20  1  0  0  0
 11 21  1  0  0  0
 14 22  1  0  0  0
 15 17  1  0  0  0
 15 20  1  0  0  0
 16 18  1  0  0  0
 16 20  1  0  0  0
 17 27  1  0  0  0
 18 27  1  0  0  0
 19 13  1  0  0  0
 28 12  1  0  0  0
 28 21  1  0  0  0
  1  4  2  0  0  0
  2  5  2  0  0  0
  3  8  2  0  0  0
  6 12  2  0  0  0
  7  9  2  0  0  0
 10 11  2  0  0  0
 13 23  2  0  0  0
 14 24  2  0  0  0
 28 25  2  0  0  0
 28 26  2  0  0  0
M  CHG  1  22  -1
M  END
> <rmsd>
0.589998364

$$$$
ZINC32962220


 28 30  0  0  0  0  0  0  0  0999 V2000
   -3.5401   -2.5665    0.5396 C   0  0  0  0  0
   -2.9066   -2.3075   -1.7775 C   0  0  0  0  0
    0.8686    2.5238   -2.5715 C   0  0  0  0  0
   -0.1073    2.5007   -1.5751 C   0  0  0  0  0
   -3.3758   -1.1957    0.7377 C   0  0  0  0  0
   -2.7424   -0.9366   -1.5794 C   0  0  0  0  0
    0.8584    0.4765   -0.6765 C   0  0  0  0  0
    1.8342    0.4996   -1.6730 C   0  0  0  0  0
   -3.3054   -3.1226   -0.7181 C   0  0  0  0  0
    1.8393    1.5232   -2.6205 C   0  0  0  0  0
   -0.1124    1.4770   -0.6275 C   0  0  0  0  0
   -2.9770   -0.3807   -0.3217 C   0  0  0  0  0
    2.8491   -0.5703   -1.7021 C   0  0  0  0  0
    4.0570    2.2919   -3.3594 C   0  0  0  0  0
    2.4026    1.5198   -5.0366 C   0  0  0  0  0
    5.1472    1.8122   -4.3109 C   0  0  0  0  0
    3.5812    1.0817   -5.8989 C   0  0  0  0  0
   -2.1667   -5.2836   -1.3398 C   0  0  0  0  0
   -4.5823   -4.9091   -1.9558 C   0  0  0  0  0
   -3.4789   -4.5884   -0.9298 C   0  0  0  0  0
    2.8089    1.5644   -3.6276 N   0  0  0  0  0
   -1.1114    1.4537    0.3921 N   0  0  0  0  0
    2.6044   -1.6339   -2.3831 O   0  0  0  0  0
    3.9421   -0.4015   -1.0451 O   0  0  0  0  0
   -3.5972    1.7227    1.0629 O   0  0  0  0  0
   -2.9653    2.0170   -1.3483 O   0  0  0  0  0
    4.7110    1.9219   -5.6656 O   0  0  0  0  0
   -2.7681    1.3589   -0.0710 S   0  0  0  0  0
  1  9  1  0  0  0
  2  6  1  0  0  0
  3 10  1  0  0  0
  4 11  1  0  0  0
  5 12  1  0  0  0
  7  8  1  0  0  0
  8 13  1  0  0  0
 10 21  1  0  0  0
 11 22  1  0  0  0
 13 23  1  0  0  0
 14 16  1  0  0  0
 14 21  1  0  0  0
 15 17  1  0  0  0
 15 21  1  0  0  0
 16 27  1  0  0  0
 17 27  1  0  0  0
 18 20  1  0  0  0
 19 20  1  0  0  0
 20  9  1  0  0  0
 28 12  1  0  0  0
 28 22  1  0  0  0
  1  5  2  0  0  0
  2  9  2  0  0  0
  3  4  2  0  0  0
  6 12  2  0  0  0
  7 11  2  0  0  0
  8 10  2  0  0  0
 13 24  2  0  0  0
 28 25  2  0  0  0
 28 26  2  0  0  0
M  CHG  1  23  -1
M  END
> <rmsd>
0.526297212

$$$$
ZINC32962220


 28 30  0  0  0  0  0  0  0  0999 V2000
   -3.2446   -2.5889    0.4334 C   0  0  0  0  0
   -2.4209   -2.2386   -1.8107 C   0  0  0  0  0
    1.0207    2.8834   -2.1911 C   0  0  0  0  0
   -0.0386    2.7665   -1.2912 C   0  0  0  0  0
   -3.2076   -1.2135    0.6617 C   0  0  0  0  0
   -2.3839   -0.8631   -1.5824 C   0  0  0  0  0
    0.9953    0.8064   -0.3288 C   0  0  0  0  0
    2.0546    0.9233   -1.2288 C   0  0  0  0  0
   -2.8511   -3.1016   -0.8029 C   0  0  0  0  0
    2.0673    1.9617   -2.1599 C   0  0  0  0  0
   -0.0514    1.7279   -0.3600 C   0  0  0  0  0
   -2.7773   -0.3504   -0.3462 C   0  0  0  0  0
    3.1487   -0.0645   -1.1744 C   0  0  0  0  0
    4.2769    2.9127   -2.6781 C   0  0  0  0  0
    2.8511    2.0468   -4.5121 C   0  0  0  0  0
    5.4850    2.5364   -3.5282 C   0  0  0  0  0
    4.1355    1.7171   -5.2647 C   0  0  0  0  0
   -1.4935   -5.1565   -1.3392 C   0  0  0  0  0
   -3.8633   -4.9578   -2.1755 C   0  0  0  0  0
   -2.8885   -4.5722   -1.0466 C   0  0  0  0  0
    3.1200    2.0964   -3.0708 N   0  0  0  0  0
   -1.1359    1.6086    0.5608 N   0  0  0  0  0
    3.0526   -1.1309   -1.8875 O   0  0  0  0  0
    4.1593    0.1757   -0.4156 O   0  0  0  0  0
   -3.6866    1.6727    0.9978 O   0  0  0  0  0
   -2.8586    2.0598   -1.3398 O   0  0  0  0  0
    5.1693    2.6375   -4.9167 O   0  0  0  0  0
   -2.7298    1.3951   -0.0572 S   0  0  0  0  0
  1  9  1  0  0  0
  2  6  1  0  0  0
  3 10  1  0  0  0
  4 11  1  0  0  0
  5 12  1  0  0  0
  7  8  1  0  0  0
  8 13  1  0  0  0
 10 21  1  0  0  0
 11 22  1  0  0  0
 13 23  1  0  0  0
 14 16  1  0  0  0
 14 21  1  0  0  0
 15 17  1  0  0  0
 15 21  1  0  0  0
 16 27  1  0  0  0
 17 27  1  0  0  0
 18 20  1  0  0  0
 19 20  1  0  0  0
 20  9  1  0  0  0
 28 12  1  0  0  0
 28 22  1  0  0  0
  1  5  2  0  0  0
  2  9  2  0  0  0
  3  4  2  0  0  0
  6 12  2  0  0  0
  7 11  2  0  0  0
  8 10  2  0  0  0
 13 24  2  0  0  0
 28 25  2  0  0  0
 28 26  2  0  0  0
M  CHG  1  23  -1
M  END
> <rmsd>
0.70737797

$$$$
ZINC33253428


 28 30  0  0  0  0  0  0  0  0999 V2000
    0.8689    2.5247   -2.5704 C   0  0  0  0  0
   -0.1069    2.5014   -1.5740 C   0  0  0  0  0
   -2.9068   -2.3068   -1.7772 C   0  0  0  0  0
   -3.5396   -2.5658    0.5401 C   0  0  0  0  0
   -2.7428   -0.9359   -1.5792 C   0  0  0  0  0
   -3.3755   -1.1948    0.7381 C   0  0  0  0  0
    0.8584    0.4769   -0.6759 C   0  0  0  0  0
    1.8342    0.5002   -1.6723 C   0  0  0  0  0
    1.8395    1.5241   -2.6195 C   0  0  0  0  0
   -0.1122    1.4776   -0.6267 C   0  0  0  0  0
   -3.3053   -3.1218   -0.7175 C   0  0  0  0  0
   -2.9771   -0.3799   -0.3216 C   0  0  0  0  0
    2.8491   -0.5699   -1.7016 C   0  0  0  0  0
    3.5302    0.9998   -5.9133 C   0  0  0  0  0
    5.1941    1.7730   -4.2127 C   0  0  0  0  0
    2.3933    1.5184   -5.0330 C   0  0  0  0  0
    4.0531    2.2942   -3.3406 C   0  0  0  0  0
    4.8202    1.7976   -5.6984 C   0  0  0  0  0
    5.9545    1.2389   -6.5540 C   0  0  0  0  0
   -3.2084   -4.9616   -2.2213 C   0  0  0  0  0
    2.8101    1.5655   -3.6276 N   0  0  0  0  0
   -1.1114    1.4540    0.3929 N   0  0  0  0  0
    2.6044   -1.6332   -2.3830 O   0  0  0  0  0
    3.9420   -0.4014   -1.0445 O   0  0  0  0  0
   -3.5971    1.7232    1.0636 O   0  0  0  0  0
   -2.9651    2.0181   -1.3474 O   0  0  0  0  0
   -3.4651   -4.4595   -0.9106 O   0  0  0  0  0
   -2.7680    1.3597   -0.0704 S   0  0  0  0  0
  1  9  1  0  0  0
  2 10  1  0  0  0
  3 11  1  0  0  0
  4  6  1  0  0  0
  5 12  1  0  0  0
  7  8  1  0  0  0
  8 13  1  0  0  0
  9 21  1  0  0  0
 10 22  1  0  0  0
 11 27  1  0  0  0
 13 23  1  0  0  0
 14 16  1  0  0  0
 14 18  1  0  0  0
 15 17  1  0  0  0
 15 18  1  0  0  0
 16 21  1  0  0  0
 17 21  1  0  0  0
 18 19  1  0  0  0
 20 27  1  0  0  0
 28 12  1  0  0  0
 28 22  1  0  0  0
  1  2  2  0  0  0
  3  5  2  0  0  0
  4 11  2  0  0  0
  6 12  2  0  0  0
  7 10  2  0  0  0
  8  9  2  0  0  0
 13 24  2  0  0  0
 28 25  2  0  0  0
 28 26  2  0  0  0
M  CHG  1  23  -1
M  END
> <rmsd>
0.526191711

$$$$
ZINC33253428


 28 30  0  0  0  0  0  0  0  0999 V2000
    1.0210    2.8843   -2.1897 C   0  0  0  0  0
   -0.0384    2.7673   -1.2899 C   0  0  0  0  0
   -2.4211   -2.2379   -1.8103 C   0  0  0  0  0
   -3.2442   -2.5882    0.4340 C   0  0  0  0  0
   -2.3843   -0.8624   -1.5822 C   0  0  0  0  0
   -3.2073   -1.2125    0.6622 C   0  0  0  0  0
    0.9952    0.8068   -0.3279 C   0  0  0  0  0
    2.0546    0.9239   -1.2278 C   0  0  0  0  0
    2.0675    1.9626   -2.1586 C   0  0  0  0  0
   -0.0514    1.7286   -0.3590 C   0  0  0  0  0
   -2.8510   -3.1008   -0.8021 C   0  0  0  0  0
   -2.7774   -0.3497   -0.3460 C   0  0  0  0  0
    3.1486   -0.0641   -1.1736 C   0  0  0  0  0
    4.0929    1.6318   -5.2844 C   0  0  0  0  0
    5.5257    2.4992   -3.4261 C   0  0  0  0  0
    2.8419    2.0447   -4.5091 C   0  0  0  0  0
    4.2712    2.9145   -2.6594 C   0  0  0  0  0
    5.2907    2.5225   -4.9400 C   0  0  0  0  0
    6.5400    2.0691   -5.6913 C   0  0  0  0  0
   -2.4706   -4.8993   -2.3110 C   0  0  0  0  0
    3.1213    2.0976   -3.0703 N   0  0  0  0  0
   -1.1360    1.6090    0.5617 N   0  0  0  0  0
    3.0526   -1.1301   -1.8870 O   0  0  0  0  0
    4.1591    0.1759   -0.4147 O   0  0  0  0  0
   -3.6867    1.6731    0.9985 O   0  0  0  0  0
   -2.8584    2.0608   -1.3389 O   0  0  0  0  0
   -2.8867   -4.4430   -1.0247 O   0  0  0  0  0
   -2.7298    1.3958   -0.0565 S   0  0  0  0  0
  1  9  1  0  0  0
  2 10  1  0  0  0
  3 11  1  0  0  0
  4  6  1  0  0  0
  5 12  1  0  0  0
  7  8  1  0  0  0
  8 13  1  0  0  0
  9 21  1  0  0  0
 10 22  1  0  0  0
 11 27  1  0  0  0
 13 23  1  0  0  0
 14 16  1  0  0  0
 14 18  1  0  0  0
 15 17  1  0  0  0
 15 18  1  0  0  0
 16 21  1  0  0  0
 17 21  1  0  0  0
 18 19  1  0  0  0
 20 27  1  0  0  0
 28 12  1  0  0  0
 28 22  1  0  0  0
  1  2  2  0  0  0
  3  5  2  0  0  0
  4 11  2  0  0  0
  6 12  2  0  0  0
  7 10  2  0  0  0
  8  9  2  0  0  0
 13 24  2  0  0  0
 28 25  2  0  0  0
 28 26  2  0  0  0
M  CHG  1  23  -1
M  END
> <rmsd>
0.707274079

$$$$
ZINC64580559


 28 30  0  0  0  0  0  0  0  0999 V2000
    1.0211    2.8836   -2.1903 C   0  0  0  0  0
   -0.0383    2.7666   -1.2906 C   0  0  0  0  0
    0.9955    0.8065   -0.3283 C   0  0  0  0  0
   -2.8523   -3.1015   -0.8022 C   0  0  0  0  0
   -3.2076   -1.2130    0.6620 C   0  0  0  0  0
   -2.3842   -0.8633   -1.5823 C   0  0  0  0  0
    2.0549    0.9234   -1.2282 C   0  0  0  0  0
   -3.2451   -2.5885    0.4340 C   0  0  0  0  0
   -2.4218   -2.2389   -1.8104 C   0  0  0  0  0
    2.0677    1.9620   -2.1592 C   0  0  0  0  0
   -0.0511    1.7281   -0.3596 C   0  0  0  0  0
   -2.7771   -0.3503   -0.3461 C   0  0  0  0  0
    3.1489   -0.0645   -1.1739 C   0  0  0  0  0
    4.2714    2.9154   -2.6654 C   0  0  0  0  0
    2.8447    2.0452   -4.5100 C   0  0  0  0  0
    5.5178    2.5117   -3.4412 C   0  0  0  0  0
    4.0950    1.6479   -5.2843 C   0  0  0  0  0
   -3.7052   -3.5108    1.5118 C   0  0  0  0  0
   -2.0016   -2.7875   -3.1320 C   0  0  0  0  0
    6.4540    2.3135   -5.7444 C   0  0  0  0  0
    3.1212    2.0969   -3.0708 N   0  0  0  0  0
   -1.1357    1.6086    0.5612 N   0  0  0  0  0
    5.2258    2.5748   -4.9189 N   0  0  0  0  0
    3.0530   -1.1306   -1.8871 O   0  0  0  0  0
    4.1595    0.1758   -0.4150 O   0  0  0  0  0
   -3.6865    1.6726    0.9980 O   0  0  0  0  0
   -2.8583    2.0600   -1.3394 O   0  0  0  0  0
   -2.7296    1.3952   -0.0570 S   0  0  0  0  0
  1 10  1  0  0  0
  2 11  1  0  0  0
  3  7  1  0  0  0
  4  9  1  0  0  0
  5  8  1  0  0  0
  6 12  1  0  0  0
  7 13  1  0  0  0
 10 21  1  0  0  0
 11 22  1  0  0  0
 13 24  1  0  0  0
 14 16  1  0  0  0
 14 21  1  0  0  0
 15 17  1  0  0  0
 15 21  1  0  0  0
 16 23  1  0  0  0
 17 23  1  0  0  0
 18  8  1  0  0  0
 19  9  1  0  0  0
 20 23  1  0  0  0
 28 12  1  0  0  0
 28 22  1  0  0  0
  1  2  2  0  0  0
  3 11  2  0  0  0
  4  8  2  0  0  0
  5 12  2  0  0  0
  6  9  2  0  0  0
  7 10  2  0  0  0
 13 25  2  0  0  0
 28 26  2  0  0  0
 28 27  2  0  0  0
M  CHG  2  23   1  24  -1
M  END
> <rmsd>
0.706890047

$$$$
ZINC64580559


 28 30  0  0  0  0  0  0  0  0999 V2000
    0.8688    2.5243   -2.5710 C   0  0  0  0  0
   -0.1070    2.5010   -1.5747 C   0  0  0  0  0
    0.8587    0.4768   -0.6763 C   0  0  0  0  0
   -3.3063   -3.1223   -0.7176 C   0  0  0  0  0
   -3.3756   -1.1953    0.7379 C   0  0  0  0  0
   -2.7426   -0.9367   -1.5793 C   0  0  0  0  0
    1.8345    0.5001   -1.6728 C   0  0  0  0  0
   -3.5404   -2.5661    0.5400 C   0  0  0  0  0
   -2.9074   -2.3076   -1.7773 C   0  0  0  0  0
    1.8396    1.5238   -2.6201 C   0  0  0  0  0
   -0.1121    1.4773   -0.6273 C   0  0  0  0  0
   -2.9768   -0.3805   -0.3217 C   0  0  0  0  0
    2.8494   -0.5699   -1.7020 C   0  0  0  0  0
    4.0527    2.2956   -3.3466 C   0  0  0  0  0
    2.3960    1.5191   -5.0341 C   0  0  0  0  0
    5.1858    1.7866   -4.2273 C   0  0  0  0  0
    3.5335    1.0162   -5.9138 C   0  0  0  0  0
   -3.9666   -3.4372    1.6729 C   0  0  0  0  0
   -2.6570   -2.9024   -3.1218 C   0  0  0  0  0
    5.8829    1.4895   -6.6035 C   0  0  0  0  0
    2.8099    1.5653   -3.6280 N   0  0  0  0  0
   -1.1112    1.4537    0.3924 N   0  0  0  0  0
    4.7617    1.8557   -5.6724 N   0  0  0  0  0
    2.6048   -1.6333   -2.3833 O   0  0  0  0  0
    3.9423   -0.4011   -1.0449 O   0  0  0  0  0
   -3.5970    1.7226    1.0632 O   0  0  0  0  0
   -2.9651    2.0174   -1.3479 O   0  0  0  0  0
   -2.7679    1.3590   -0.0709 S   0  0  0  0  0
  1 10  1  0  0  0
  2 11  1  0  0  0
  3  7  1  0  0  0
  4  9  1  0  0  0
  5  8  1  0  0  0
  6 12  1  0  0  0
  7 13  1  0  0  0
 10 21  1  0  0  0
 11 22  1  0  0  0
 13 24  1  0  0  0
 14 16  1  0  0  0
 14 21  1  0  0  0
 15 17  1  0  0  0
 15 21  1  0  0  0
 16 23  1  0  0  0
 17 23  1  0  0  0
 18  8  1  0  0  0
 19  9  1  0  0  0
 20 23  1  0  0  0
 28 12  1  0  0  0
 28 22  1  0  0  0
  1  2  2  0  0  0
  3 11  2  0  0  0
  4  8  2  0  0  0
  5 12  2  0  0  0
  6  9  2  0  0  0
  7 10  2  0  0  0
 13 25  2  0  0  0
 28 26  2  0  0  0
 28 27  2  0  0  0
M  CHG  2  23   1  24  -1
M  END
> <rmsd>
0.526051164

$$$$
ZINC64580578


 28 30  0  0  0  0  0  0  0  0999 V2000
   -3.2449   -2.5886    0.4331 C   0  0  0  0  0
   -2.4211   -2.2381   -1.8110 C   0  0  0  0  0
    1.0209    2.8836   -2.1908 C   0  0  0  0  0
   -0.0385    2.7666   -1.2911 C   0  0  0  0  0
   -3.2078   -1.2131    0.6615 C   0  0  0  0  0
   -2.3840   -0.8626   -1.5826 C   0  0  0  0  0
    0.9953    0.8065   -0.3288 C   0  0  0  0  0
    2.0546    0.9234   -1.2287 C   0  0  0  0  0
   -2.8515   -3.1011   -0.8031 C   0  0  0  0  0
    2.0674    1.9619   -2.1597 C   0  0  0  0  0
   -0.0513    1.7281   -0.3600 C   0  0  0  0  0
   -2.7774   -0.3501   -0.3463 C   0  0  0  0  0
    3.1486   -0.0646   -1.1744 C   0  0  0  0  0
    4.2712    2.9152   -2.6660 C   0  0  0  0  0
    2.8444    2.0449   -4.5105 C   0  0  0  0  0
    5.5176    2.5114   -3.4419 C   0  0  0  0  0
    4.0946    1.6475   -5.2849 C   0  0  0  0  0
   -2.8890   -4.5718   -1.0470 C   0  0  0  0  0
    6.1078    2.4542   -7.2113 C   0  0  0  0  0
    6.4536    2.3130   -5.7452 C   0  0  0  0  0
    3.1209    2.0967   -3.0713 N   0  0  0  0  0
   -1.1359    1.6088    0.5608 N   0  0  0  0  0
    5.2254    2.5745   -4.9196 N   0  0  0  0  0
    3.0525   -1.1307   -1.8876 O   0  0  0  0  0
    4.1592    0.1756   -0.4155 O   0  0  0  0  0
   -3.6866    1.6730    0.9977 O   0  0  0  0  0
   -2.8585    2.0602   -1.3397 O   0  0  0  0  0
   -2.7298    1.3954   -0.0573 S   0  0  0  0  0
  1  9  1  0  0  0
  2  6  1  0  0  0
  3 10  1  0  0  0
  4 11  1  0  0  0
  5 12  1  0  0  0
  7  8  1  0  0  0
  8 13  1  0  0  0
 10 21  1  0  0  0
 11 22  1  0  0  0
 13 24  1  0  0  0
 14 16  1  0  0  0
 14 21  1  0  0  0
 15 17  1  0  0  0
 15 21  1  0  0  0
 16 23  1  0  0  0
 17 23  1  0  0  0
 18  9  1  0  0  0
 19 20  1  0  0  0
 20 23  1  0  0  0
 28 12  1  0  0  0
 28 22  1  0  0  0
  1  5  2  0  0  0
  2  9  2  0  0  0
  3  4  2  0  0  0
  6 12  2  0  0  0
  7 11  2  0  0  0
  8 10  2  0  0  0
 13 25  2  0  0  0
 28 26  2  0  0  0
 28 27  2  0  0  0
M  CHG  2  23   1  24  -1
M  END
> <rmsd>
0.707282305

$$$$
ZINC64580578


 28 30  0  0  0  0  0  0  0  0999 V2000
   -3.5402   -2.5662    0.5392 C   0  0  0  0  0
   -2.9068   -2.3069   -1.7779 C   0  0  0  0  0
    0.8686    2.5243   -2.5715 C   0  0  0  0  0
   -0.1072    2.5010   -1.5751 C   0  0  0  0  0
   -3.3759   -1.1954    0.7375 C   0  0  0  0  0
   -2.7425   -0.9361   -1.5796 C   0  0  0  0  0
    0.8584    0.4768   -0.6767 C   0  0  0  0  0
    1.8342    0.5000   -1.6732 C   0  0  0  0  0
   -3.3056   -3.1220   -0.7185 C   0  0  0  0  0
    1.8393    1.5237   -2.6206 C   0  0  0  0  0
   -0.1124    1.4773   -0.6277 C   0  0  0  0  0
   -2.9771   -0.3803   -0.3219 C   0  0  0  0  0
    2.8490   -0.5701   -1.7025 C   0  0  0  0  0
    4.0524    2.2954   -3.3473 C   0  0  0  0  0
    2.3956    1.5189   -5.0346 C   0  0  0  0  0
    5.1854    1.7862   -4.2280 C   0  0  0  0  0
    3.5330    1.0159   -5.9143 C   0  0  0  0  0
   -3.4791   -4.5879   -0.9304 C   0  0  0  0  0
    5.4121    1.6403   -8.0342 C   0  0  0  0  0
    5.8824    1.4890   -6.6042 C   0  0  0  0  0
    2.8095    1.5651   -3.6286 N   0  0  0  0  0
   -1.1114    1.4539    0.3920 N   0  0  0  0  0
    4.7612    1.8553   -5.6730 N   0  0  0  0  0
    2.6044   -1.6334   -2.3837 O   0  0  0  0  0
    3.9420   -0.4013   -1.0454 O   0  0  0  0  0
   -3.5971    1.7230    1.0629 O   0  0  0  0  0
   -2.9653    2.0176   -1.3482 O   0  0  0  0  0
   -2.7681    1.3593   -0.0711 S   0  0  0  0  0
  1  9  1  0  0  0
  2  6  1  0  0  0
  3 10  1  0  0  0
  4 11  1  0  0  0
  5 12  1  0  0  0
  7  8  1  0  0  0
  8 13  1  0  0  0
 10 21  1  0  0  0
 11 22  1  0  0  0
 13 24  1  0  0  0
 14 16  1  0  0  0
 14 21  1  0  0  0
 15 17  1  0  0  0
 15 21  1  0  0  0
 16 23  1  0  0  0
 17 23  1  0  0  0
 18  9  1  0  0  0
 19 20  1  0  0  0
 20 23  1  0  0  0
 28 12  1  0  0  0
 28 22  1  0  0  0
  1  5  2  0  0  0
  2  9  2  0  0  0
  3  4  2  0  0  0
  6 12  2  0  0  0
  7 11  2  0  0  0
  8 10  2  0  0  0
 13 25  2  0  0  0
 28 26  2  0  0  0
 28 27  2  0  0  0
M  CHG  2  23   1  24  -1
M  END
> <rmsd>
0.526296079

$$$$
ZINC64580549


 28 30  0  0  0  0  0  0  0  0999 V2000
   -3.2447   -2.5888    0.4338 C   0  0  0  0  0
   -2.4210   -2.2385   -1.8104 C   0  0  0  0  0
    1.0208    2.8833   -2.1906 C   0  0  0  0  0
   -0.0386    2.7664   -1.2908 C   0  0  0  0  0
   -3.2077   -1.2133    0.6621 C   0  0  0  0  0
   -2.3840   -0.8630   -1.5820 C   0  0  0  0  0
    0.9953    0.8064   -0.3284 C   0  0  0  0  0
    2.0546    0.9232   -1.2283 C   0  0  0  0  0
   -2.8513   -3.1014   -0.8025 C   0  0  0  0  0
    2.0674    1.9617   -2.1594 C   0  0  0  0  0
   -0.0514    1.7280   -0.3596 C   0  0  0  0  0
   -2.7774   -0.3504   -0.3458 C   0  0  0  0  0
    3.1486   -0.0647   -1.1739 C   0  0  0  0  0
    4.2710    2.9151   -2.6658 C   0  0  0  0  0
    2.8443    2.0447   -4.5102 C   0  0  0  0  0
    5.5174    2.5113   -3.4416 C   0  0  0  0  0
    4.0945    1.6473   -5.2846 C   0  0  0  0  0
   -1.5770   -5.2567   -0.6705 C   0  0  0  0  0
    6.4535    2.3128   -5.7449 C   0  0  0  0  0
   -2.8887   -4.5722   -1.0462 C   0  0  0  0  0
    3.1209    2.0965   -3.0710 N   0  0  0  0  0
   -1.1359    1.6087    0.5612 N   0  0  0  0  0
    5.2253    2.5743   -4.9193 N   0  0  0  0  0
    3.0526   -1.1309   -1.8871 O   0  0  0  0  0
    4.1592    0.1757   -0.4151 O   0  0  0  0  0
   -3.6867    1.6727    0.9981 O   0  0  0  0  0
   -2.8585    2.0599   -1.3394 O   0  0  0  0  0
   -2.7298    1.3952   -0.0569 S   0  0  0  0  0
  1  9  1  0  0  0
  2  6  1  0  0  0
  3 10  1  0  0  0
  4 11  1  0  0  0
  5 12  1  0  0  0
  7  8  1  0  0  0
  8 13  1  0  0  0
 10 21  1  0  0  0
 11 22  1  0  0  0
 13 24  1  0  0  0
 14 16  1  0  0  0
 14 21  1  0  0  0
 15 17  1  0  0  0
 15 21  1  0  0  0
 16 23  1  0  0  0
 17 23  1  0  0  0
 18 20  1  0  0  0
 19 23  1  0  0  0
 20  9  1  0  0  0
 28 12  1  0  0  0
 28 22  1  0  0  0
  1  5  2  0  0  0
  2  9  2  0  0  0
  3  4  2  0  0  0
  6 12  2  0  0  0
  7 11  2  0  0  0
  8 10  2  0  0  0
 13 25  2  0  0  0
 28 26  2  0  0  0
 28 27  2  0  0  0
M  CHG  2  23   1  24  -1
M  END
> <rmsd>
0.70724237

$$$$
ZINC64580549


 28 30  0  0  0  0  0  0  0  0999 V2000
   -3.5400   -2.5665    0.5398 C   0  0  0  0  0
   -2.9066   -2.3073   -1.7773 C   0  0  0  0  0
    0.8685    2.5240   -2.5712 C   0  0  0  0  0
   -0.1073    2.5008   -1.5748 C   0  0  0  0  0
   -3.3758   -1.1956    0.7380 C   0  0  0  0  0
   -2.7424   -0.9364   -1.5791 C   0  0  0  0  0
    0.8584    0.4767   -0.6763 C   0  0  0  0  0
    1.8342    0.4999   -1.6728 C   0  0  0  0  0
   -3.3054   -3.1224   -0.7179 C   0  0  0  0  0
    1.8392    1.5235   -2.6202 C   0  0  0  0  0
   -0.1124    1.4772   -0.6273 C   0  0  0  0  0
   -2.9770   -0.3806   -0.3214 C   0  0  0  0  0
    2.8490   -0.5702   -1.7020 C   0  0  0  0  0
    4.0524    2.2952   -3.3470 C   0  0  0  0  0
    2.3955    1.5186   -5.0342 C   0  0  0  0  0
    5.1854    1.7861   -4.2276 C   0  0  0  0  0
    3.5330    1.0156   -5.9139 C   0  0  0  0  0
   -2.1942   -5.3693   -0.6648 C   0  0  0  0  0
    5.8823    1.4887   -6.6039 C   0  0  0  0  0
   -3.4788   -4.5883   -0.9297 C   0  0  0  0  0
    2.8095    1.5648   -3.6282 N   0  0  0  0  0
   -1.1114    1.4538    0.3924 N   0  0  0  0  0
    4.7612    1.8550   -5.6727 N   0  0  0  0  0
    2.6045   -1.6336   -2.3831 O   0  0  0  0  0
    3.9421   -0.4013   -1.0450 O   0  0  0  0  0
   -3.5971    1.7227    1.0633 O   0  0  0  0  0
   -2.9653    2.0172   -1.3479 O   0  0  0  0  0
   -2.7681    1.3590   -0.0707 S   0  0  0  0  0
  1  9  1  0  0  0
  2  6  1  0  0  0
  3 10  1  0  0  0
  4 11  1  0  0  0
  5 12  1  0  0  0
  7  8  1  0  0  0
  8 13  1  0  0  0
 10 21  1  0  0  0
 11 22  1  0  0  0
 13 24  1  0  0  0
 14 16  1  0  0  0
 14 21  1  0  0  0
 15 17  1  0  0  0
 15 21  1  0  0  0
 16 23  1  0  0  0
 17 23  1  0  0  0
 18 20  1  0  0  0
 19 23  1  0  0  0
 20  9  1  0  0  0
 28 12  1  0  0  0
 28 22  1  0  0  0
  1  5  2  0  0  0
  2  9  2  0  0  0
  3  4  2  0  0  0
  6 12  2  0  0  0
  7 11  2  0  0  0
  8 10  2  0  0  0
 13 25  2  0  0  0
 28 26  2  0  0  0
 28 27  2  0  0  0
M  CHG  2  23   1  24  -1
M  END
> <rmsd>
0.526365578

$$$$
ZINC64580545


 28 30  0  0  0  0  0  0  0  0999 V2000
   -3.2450   -2.5882    0.4338 C   0  0  0  0  0
    1.0214    2.8838   -2.1895 C   0  0  0  0  0
   -0.0381    2.7666   -1.2899 C   0  0  0  0  0
   -3.2084   -1.2126    0.6613 C   0  0  0  0  0
    0.9952    0.8060   -0.3282 C   0  0  0  0  0
   -2.3832   -0.8635   -1.5825 C   0  0  0  0  0
    2.0547    0.9231   -1.2278 C   0  0  0  0  0
   -2.8506   -3.1015   -0.8019 C   0  0  0  0  0
   -2.4198   -2.2391   -1.8100 C   0  0  0  0  0
    2.0678    1.9620   -2.1585 C   0  0  0  0  0
   -0.0513    1.7278   -0.3592 C   0  0  0  0  0
   -2.7776   -0.3502   -0.3468 C   0  0  0  0  0
    3.1486   -0.0650   -1.1737 C   0  0  0  0  0
    4.2718    2.9152   -2.6640 C   0  0  0  0  0
    2.8452    2.0458   -4.5091 C   0  0  0  0  0
    5.5182    2.5115   -3.4398 C   0  0  0  0  0
    4.0955    1.6485   -5.2834 C   0  0  0  0  0
   -2.8976   -4.5780   -1.0218 C   0  0  0  0  0
   -1.9914   -2.7656   -3.1404 C   0  0  0  0  0
    6.4547    2.3139   -5.7430 C   0  0  0  0  0
    3.1215    2.0969   -3.0699 N   0  0  0  0  0
   -1.1360    1.6082    0.5613 N   0  0  0  0  0
    5.2264    2.5752   -4.9176 N   0  0  0  0  0
    3.0525   -1.1309   -1.8873 O   0  0  0  0  0
    4.1591    0.1748   -0.4146 O   0  0  0  0  0
   -3.6868    1.6725    0.9978 O   0  0  0  0  0
   -2.8582    2.0605   -1.3393 O   0  0  0  0  0
   -2.7298    1.3953   -0.0571 S   0  0  0  0  0
  1  8  1  0  0  0
  2 10  1  0  0  0
  3 11  1  0  0  0
  4 12  1  0  0  0
  5  7  1  0  0  0
  6  9  1  0  0  0
  7 13  1  0  0  0
 10 21  1  0  0  0
 11 22  1  0  0  0
 13 24  1  0  0  0
 14 16  1  0  0  0
 14 21  1  0  0  0
 15 17  1  0  0  0
 15 21  1  0  0  0
 16 23  1  0  0  0
 17 23  1  0  0  0
 18  8  1  0  0  0
 19  9  1  0  0  0
 20 23  1  0  0  0
 28 12  1  0  0  0
 28 22  1  0  0  0
  1  4  2  0  0  0
  2  3  2  0  0  0
  5 11  2  0  0  0
  6 12  2  0  0  0
  7 10  2  0  0  0
  8  9  2  0  0  0
 13 25  2  0  0  0
 28 26  2  0  0  0
 28 27  2  0  0  0
M  CHG  2  23   1  24  -1
M  END
> <rmsd>
0.707290113

$$$$
ZINC64580545


 28 30  0  0  0  0  0  0  0  0999 V2000
   -3.5401   -2.5659    0.5397 C   0  0  0  0  0
    0.8691    2.5246   -2.5703 C   0  0  0  0  0
   -0.1069    2.5011   -1.5741 C   0  0  0  0  0
   -3.3764   -1.1949    0.7372 C   0  0  0  0  0
    0.8583    0.4765   -0.6763 C   0  0  0  0  0
   -2.7418   -0.9369   -1.5797 C   0  0  0  0  0
    1.8343    0.4999   -1.6726 C   0  0  0  0  0
   -3.3045   -3.1225   -0.7175 C   0  0  0  0  0
   -2.9054   -2.3080   -1.7772 C   0  0  0  0  0
    1.8396    1.5240   -2.6196 C   0  0  0  0  0
   -0.1123    1.4771   -0.6270 C   0  0  0  0  0
   -2.9773   -0.3803   -0.3224 C   0  0  0  0  0
    2.8490   -0.5703   -1.7021 C   0  0  0  0  0
    4.0530    2.2956   -3.3456 C   0  0  0  0  0
    2.3963    1.5200   -5.0335 C   0  0  0  0  0
    5.1861    1.7867   -4.2263 C   0  0  0  0  0
    3.5339    1.0172   -5.9132 C   0  0  0  0  0
   -3.4857   -4.5931   -0.9045 C   0  0  0  0  0
   -2.6461   -2.8814   -3.1316 C   0  0  0  0  0
    5.8834    1.4902   -6.6025 C   0  0  0  0  0
    2.8101    1.5656   -3.6274 N   0  0  0  0  0
   -1.1115    1.4534    0.3925 N   0  0  0  0  0
    4.7622    1.8564   -5.6714 N   0  0  0  0  0
    2.6043   -1.6333   -2.3837 O   0  0  0  0  0
    3.9419   -0.4019   -1.0448 O   0  0  0  0  0
   -3.5973    1.7225    1.0631 O   0  0  0  0  0
   -2.9651    2.0179   -1.3478 O   0  0  0  0  0
   -2.7681    1.3591   -0.0710 S   0  0  0  0  0
  1  8  1  0  0  0
  2 10  1  0  0  0
  3 11  1  0  0  0
  4 12  1  0  0  0
  5  7  1  0  0  0
  6  9  1  0  0  0
  7 13  1  0  0  0
 10 21  1  0  0  0
 11 22  1  0  0  0
 13 24  1  0  0  0
 14 16  1  0  0  0
 14 21  1  0  0  0
 15 17  1  0  0  0
 15 21  1  0  0  0
 16 23  1  0  0  0
 17 23  1  0  0  0
 18  8  1  0  0  0
 19  9  1  0  0  0
 20 23  1  0  0  0
 28 12  1  0  0  0
 28 22  1  0  0  0
  1  4  2  0  0  0
  2  3  2  0  0  0
  5 11  2  0  0  0
  6 12  2  0  0  0
  7 10  2  0  0  0
  8  9  2  0  0  0
 13 25  2  0  0  0
 28 26  2  0  0  0
 28 27  2  0  0  0
M  CHG  2  23   1  24  -1
M  END
> <rmsd>
0.526331604

$$$$
ZINC64580599


 28 30  0  0  0  0  0  0  0  0999 V2000
   -2.4219   -2.2381   -1.8105 C   0  0  0  0  0
   -2.8523   -3.1008   -0.8025 C   0  0  0  0  0
    1.0206    2.8842   -2.1903 C   0  0  0  0  0
   -0.0388    2.7672   -1.2906 C   0  0  0  0  0
   -2.3844   -0.8625   -1.5822 C   0  0  0  0  0
    0.9951    0.8071   -0.3283 C   0  0  0  0  0
   -3.2080   -1.2124    0.6619 C   0  0  0  0  0
    2.0544    0.9240   -1.2282 C   0  0  0  0  0
   -3.2454   -2.5881    0.4336 C   0  0  0  0  0
    2.0672    1.9626   -2.1591 C   0  0  0  0  0
   -0.0516    1.7287   -0.3595 C   0  0  0  0  0
   -2.7776   -0.3497   -0.3460 C   0  0  0  0  0
    3.1484   -0.0638   -1.1738 C   0  0  0  0  0
    4.2709    2.9160   -2.6653 C   0  0  0  0  0
    2.8443    2.0458   -4.5099 C   0  0  0  0  0
    5.5174    2.5123   -3.4411 C   0  0  0  0  0
    4.0946    1.6485   -5.2843 C   0  0  0  0  0
   -3.7071   -3.5112    1.5104 C   0  0  0  0  0
    6.1078    2.4554   -7.2106 C   0  0  0  0  0
    6.4535    2.3141   -5.7444 C   0  0  0  0  0
    3.1208    2.0975   -3.0707 N   0  0  0  0  0
   -1.1362    1.6093    0.5612 N   0  0  0  0  0
    5.2253    2.5754   -4.9189 N   0  0  0  0  0
    3.0525   -1.1300   -1.8871 O   0  0  0  0  0
    4.1590    0.1764   -0.4149 O   0  0  0  0  0
   -3.6870    1.6732    0.9980 O   0  0  0  0  0
   -2.8587    2.0606   -1.3394 O   0  0  0  0  0
   -2.7301    1.3958   -0.0570 S   0  0  0  0  0
  1  2  1  0  0  0
  3 10  1  0  0  0
  4 11  1  0  0  0
  5 12  1  0  0  0
  6  8  1  0  0  0
  7  9  1  0  0  0
  8 13  1  0  0  0
 10 21  1  0  0  0
 11 22  1  0  0  0
 13 24  1  0  0  0
 14 16  1  0  0  0
 14 21  1  0  0  0
 15 17  1  0  0  0
 15 21  1  0  0  0
 16 23  1  0  0  0
 17 23  1  0  0  0
 18  9  1  0  0  0
 19 20  1  0  0  0
 20 23  1  0  0  0
 28 12  1  0  0  0
 28 22  1  0  0  0
  1  5  2  0  0  0
  2  9  2  0  0  0
  3  4  2  0  0  0
  6 11  2  0  0  0
  7 12  2  0  0  0
  8 10  2  0  0  0
 13 25  2  0  0  0
 28 26  2  0  0  0
 28 27  2  0  0  0
M  CHG  2  23   1  24  -1
M  END
> <rmsd>
0.706890047

$$$$
ZINC64580599


 28 30  0  0  0  0  0  0  0  0999 V2000
   -2.9075   -2.3068   -1.7774 C   0  0  0  0  0
   -3.3063   -3.1216   -0.7179 C   0  0  0  0  0
    0.8684    2.5250   -2.5709 C   0  0  0  0  0
   -0.1074    2.5016   -1.5746 C   0  0  0  0  0
   -2.7428   -0.9359   -1.5792 C   0  0  0  0  0
    0.8583    0.4774   -0.6763 C   0  0  0  0  0
   -3.3760   -1.1947    0.7378 C   0  0  0  0  0
    1.8341    0.5007   -1.6727 C   0  0  0  0  0
   -3.5407   -2.5657    0.5397 C   0  0  0  0  0
    1.8392    1.5245   -2.6200 C   0  0  0  0  0
   -0.1125    1.4779   -0.6272 C   0  0  0  0  0
   -2.9772   -0.3799   -0.3217 C   0  0  0  0  0
    2.8489   -0.5693   -1.7019 C   0  0  0  0  0
    4.0523    2.2963   -3.3466 C   0  0  0  0  0
    2.3956    1.5198   -5.0340 C   0  0  0  0  0
    5.1854    1.7872   -4.2272 C   0  0  0  0  0
    3.5331    1.0169   -5.9137 C   0  0  0  0  0
   -3.9687   -3.4375    1.6717 C   0  0  0  0  0
    5.4122    1.6414   -8.0335 C   0  0  0  0  0
    5.8825    1.4901   -6.6034 C   0  0  0  0  0
    2.8095    1.5659   -3.6280 N   0  0  0  0  0
   -1.1116    1.4544    0.3924 N   0  0  0  0  0
    4.7613    1.8563   -5.6723 N   0  0  0  0  0
    2.6044   -1.6326   -2.3832 O   0  0  0  0  0
    3.9419   -0.4005   -1.0449 O   0  0  0  0  0
   -3.5974    1.7233    1.0632 O   0  0  0  0  0
   -2.9655    2.0180   -1.3479 O   0  0  0  0  0
   -2.7683    1.3597   -0.0708 S   0  0  0  0  0
  1  2  1  0  0  0
  3 10  1  0  0  0
  4 11  1  0  0  0
  5 12  1  0  0  0
  6  8  1  0  0  0
  7  9  1  0  0  0
  8 13  1  0  0  0
 10 21  1  0  0  0
 11 22  1  0  0  0
 13 24  1  0  0  0
 14 16  1  0  0  0
 14 21  1  0  0  0
 15 17  1  0  0  0
 15 21  1  0  0  0
 16 23  1  0  0  0
 17 23  1  0  0  0
 18  9  1  0  0  0
 19 20  1  0  0  0
 20 23  1  0  0  0
 28 12  1  0  0  0
 28 22  1  0  0  0
  1  5  2  0  0  0
  2  9  2  0  0  0
  3  4  2  0  0  0
  6 11  2  0  0  0
  7 12  2  0  0  0
  8 10  2  0  0  0
 13 25  2  0  0  0
 28 26  2  0  0  0
 28 27  2  0  0  0
M  CHG  2  23   1  24  -1
M  END
> <rmsd>
0.526051164

$$$$
ZINC33253649


 28 29  0  0  0  0  0  0  0  0999 V2000
   -3.5410   -2.5666    0.5360 C   0  0  0  0  0
   -2.9084   -2.3057   -1.7810 C   0  0  0  0  0
   -0.1356    2.4680   -1.6186 C   0  0  0  0  0
    0.8297    2.4766   -2.6254 C   0  0  0  0  0
   -3.3766   -1.1959    0.7353 C   0  0  0  0  0
   -2.7439   -0.9349   -1.5817 C   0  0  0  0  0
    0.8582    0.4747   -0.6826 C   0  0  0  0  0
    1.8236    0.4833   -1.6895 C   0  0  0  0  0
   -3.3069   -3.1216   -0.7221 C   0  0  0  0  0
   -0.1213    1.4671   -0.6472 C   0  0  0  0  0
    1.8093    1.4843   -2.6609 C   0  0  0  0  0
   -2.9780   -0.3801   -0.3235 C   0  0  0  0  0
    2.8488   -0.5770   -1.7038 C   0  0  0  0  0
    3.8403    3.6878   -3.7613 C   0  0  0  0  0
    1.8330    1.6714   -5.9167 C   0  0  0  0  0
   -1.7017   -5.2719    0.7569 C   0  0  0  0  0
   -2.4724   -6.9057   -0.9752 C   0  0  0  0  0
   -3.4826   -4.6050   -0.9376 C   0  0  0  0  0
    4.0204    2.2300   -3.5064 C   0  0  0  0  0
    2.5427    0.8051   -4.9327 C   0  0  0  0  0
   -2.2050   -5.4277   -0.6803 C   0  0  0  0  0
   -1.1172    1.4581    0.3903 N   0  0  0  0  0
    2.7773    1.5101   -3.6895 N   0  0  0  0  0
    2.6082   -1.6586   -2.3573 O   0  0  0  0  0
    3.9465   -0.3821   -1.0619 O   0  0  0  0  0
   -3.5927    1.7210    1.0669 O   0  0  0  0  0
   -2.9725    2.0191   -1.3468 O   0  0  0  0  0
   -2.7717    1.3357   -0.0749 S   0  0  0  0  0
  1  9  1  0  0  0
  2  6  1  0  0  0
  3 10  1  0  0  0
  4 11  1  0  0  0
  5 12  1  0  0  0
  7  8  1  0  0  0
  8 13  1  0  0  0
 10 22  1  0  0  0
 11 23  1  0  0  0
 13 24  1  0  0  0
 14 19  1  0  0  0
 15 20  1  0  0  0
 16 21  1  0  0  0
 17 21  1  0  0  0
 18  9  1  0  0  0
 18 21  1  0  0  0
 19 23  1  0  0  0
 20 23  1  0  0  0
 28 12  1  0  0  0
 28 22  1  0  0  0
  1  5  2  0  0  0
  2  9  2  0  0  0
  3  4  2  0  0  0
  6 12  2  0  0  0
  7 10  2  0  0  0
  8 11  2  0  0  0
 13 25  2  0  0  0
 28 26  2  0  0  0
 28 27  2  0  0  0
M  CHG  1  24  -1
M  END
> <rmsd>
0.527604163

$$$$
ZINC33253649


 28 29  0  0  0  0  0  0  0  0999 V2000
   -3.2373   -2.5896    0.4254 C   0  0  0  0  0
   -2.4214   -2.2321   -1.8203 C   0  0  0  0  0
   -0.0688    2.7417   -1.3417 C   0  0  0  0  0
    0.9796    2.8473   -2.2557 C   0  0  0  0  0
   -3.2027   -1.2146    0.6570 C   0  0  0  0  0
   -2.3867   -0.8570   -1.5888 C   0  0  0  0  0
    0.9941    0.8146   -0.3451 C   0  0  0  0  0
    2.0426    0.9201   -1.2592 C   0  0  0  0  0
   -2.8467   -3.0985   -0.8132 C   0  0  0  0  0
   -0.0615    1.7254   -0.3864 C   0  0  0  0  0
    2.0352    1.9365   -2.2145 C   0  0  0  0  0
   -2.7773   -0.3483   -0.3501 C   0  0  0  0  0
    3.1471   -0.0552   -1.1935 C   0  0  0  0  0
    3.9728    4.3160   -3.0951 C   0  0  0  0  0
    2.3374    2.1916   -5.4516 C   0  0  0  0  0
   -1.2132   -5.1449    0.7781 C   0  0  0  0  0
   -1.6902   -6.7987   -1.0387 C   0  0  0  0  0
   -2.8820   -4.5865   -1.0635 C   0  0  0  0  0
    4.2462    2.8721   -2.8440 C   0  0  0  0  0
    3.0230    1.3642   -4.4183 C   0  0  0  0  0
   -1.5706   -5.3105   -0.7011 C   0  0  0  0  0
   -1.1429    1.6164    0.5553 N   0  0  0  0  0
    3.0869    2.0599   -3.1497 N   0  0  0  0  0
    3.0545   -1.1388   -1.8805 O   0  0  0  0  0
    4.1631    0.2128   -0.4513 O   0  0  0  0  0
   -3.6824    1.6687    1.0058 O   0  0  0  0  0
   -2.8731    2.0643   -1.3368 O   0  0  0  0  0
   -2.7334    1.3730   -0.0610 S   0  0  0  0  0
  1  9  1  0  0  0
  2  6  1  0  0  0
  3 10  1  0  0  0
  4 11  1  0  0  0
  5 12  1  0  0  0
  7  8  1  0  0  0
  8 13  1  0  0  0
 10 22  1  0  0  0
 11 23  1  0  0  0
 13 24  1  0  0  0
 14 19  1  0  0  0
 15 20  1  0  0  0
 16 21  1  0  0  0
 17 21  1  0  0  0
 18  9  1  0  0  0
 18 21  1  0  0  0
 19 23  1  0  0  0
 20 23  1  0  0  0
 28 12  1  0  0  0
 28 22  1  0  0  0
  1  5  2  0  0  0
  2  9  2  0  0  0
  3  4  2  0  0  0
  6 12  2  0  0  0
  7 10  2  0  0  0
  8 11  2  0  0  0
 13 25  2  0  0  0
 28 26  2  0  0  0
 28 27  2  0  0  0
M  CHG  1  24  -1
M  END
> <rmsd>
0.711393416

$$$$
ZINC33253658


 28 29  0  0  0  0  0  0  0  0999 V2000
   -2.9089   -2.3064   -1.7816 C   0  0  0  0  0
   -3.5418   -2.5658    0.5356 C   0  0  0  0  0
   -0.1348    2.4685   -1.6186 C   0  0  0  0  0
    0.8307    2.4775   -2.6252 C   0  0  0  0  0
   -2.7438   -0.9357   -1.5830 C   0  0  0  0  0
   -3.3765   -1.1952    0.7342 C   0  0  0  0  0
    0.8588    0.4749   -0.6831 C   0  0  0  0  0
    1.8244    0.4838   -1.6898 C   0  0  0  0  0
   -3.3080   -3.1215   -0.7224 C   0  0  0  0  0
   -0.1208    1.4672   -0.6475 C   0  0  0  0  0
    1.8102    1.4851   -2.6609 C   0  0  0  0  0
   -2.9775   -0.3801   -0.3252 C   0  0  0  0  0
    2.8496   -0.5766   -1.7043 C   0  0  0  0  0
    3.8414    3.6891   -3.7601 C   0  0  0  0  0
    1.8346    1.6735   -5.9166 C   0  0  0  0  0
   -2.1586   -5.2563   -1.4060 C   0  0  0  0  0
   -4.5691   -4.8731   -2.0216 C   0  0  0  0  0
   -3.9376   -5.3979    0.3251 C   0  0  0  0  0
    4.0216    2.2311   -3.5056 C   0  0  0  0  0
    2.5441    0.8068   -4.9327 C   0  0  0  0  0
   -3.4924   -4.6322   -0.9414 C   0  0  0  0  0
   -1.1169    1.4579    0.3897 N   0  0  0  0  0
    2.7785    1.5112   -3.6893 N   0  0  0  0  0
    2.6092   -1.6579   -2.3583 O   0  0  0  0  0
    3.9471   -0.3819   -1.0622 O   0  0  0  0  0
   -3.5924    1.7206    1.0660 O   0  0  0  0  0
   -2.9719    2.0196   -1.3475 O   0  0  0  0  0
   -2.7712    1.3357   -0.0758 S   0  0  0  0  0
  1  9  1  0  0  0
  2  6  1  0  0  0
  3 10  1  0  0  0
  4 11  1  0  0  0
  5 12  1  0  0  0
  7  8  1  0  0  0
  8 13  1  0  0  0
 10 22  1  0  0  0
 11 23  1  0  0  0
 13 24  1  0  0  0
 14 19  1  0  0  0
 15 20  1  0  0  0
 16 21  1  0  0  0
 17 21  1  0  0  0
 18 21  1  0  0  0
 19 23  1  0  0  0
 20 23  1  0  0  0
 21  9  1  0  0  0
 28 12  1  0  0  0
 28 22  1  0  0  0
  1  5  2  0  0  0
  2  9  2  0  0  0
  3  4  2  0  0  0
  6 12  2  0  0  0
  7 10  2  0  0  0
  8 11  2  0  0  0
 13 25  2  0  0  0
 28 26  2  0  0  0
 28 27  2  0  0  0
M  CHG  1  24  -1
M  END
> <rmsd>
0.527210712

$$$$
ZINC33253658


 28 29  0  0  0  0  0  0  0  0999 V2000
   -2.4223   -2.2330   -1.8208 C   0  0  0  0  0
   -3.2386   -2.5889    0.4252 C   0  0  0  0  0
   -0.0680    2.7419   -1.3418 C   0  0  0  0  0
    0.9805    2.8477   -2.2556 C   0  0  0  0  0
   -2.3867   -0.8579   -1.5899 C   0  0  0  0  0
   -3.2029   -1.2138    0.6560 C   0  0  0  0  0
    0.9946    0.8143   -0.3456 C   0  0  0  0  0
    2.0432    0.9201   -1.2595 C   0  0  0  0  0
   -2.8483   -3.0986   -0.8133 C   0  0  0  0  0
   -0.0609    1.7252   -0.3867 C   0  0  0  0  0
    2.0360    1.9368   -2.2145 C   0  0  0  0  0
   -2.7770   -0.3482   -0.3515 C   0  0  0  0  0
    3.1476   -0.0554   -1.1940 C   0  0  0  0  0
    3.9739    4.3163   -3.0942 C   0  0  0  0  0
    2.3387    2.1929   -5.4516 C   0  0  0  0  0
   -1.4737   -5.1214   -1.4168 C   0  0  0  0  0
   -3.8419   -4.9175   -2.2454 C   0  0  0  0  0
   -3.3844   -5.4385    0.1422 C   0  0  0  0  0
    4.2472    2.8723   -2.8434 C   0  0  0  0  0
    3.0241    1.3651   -4.4184 C   0  0  0  0  0
   -2.8899   -4.6143   -1.0681 C   0  0  0  0  0
   -1.1426    1.6160    0.5547 N   0  0  0  0  0
    3.0879    2.0603   -3.1495 N   0  0  0  0  0
    3.0550   -1.1388   -1.8813 O   0  0  0  0  0
    4.1635    0.2123   -0.4516 O   0  0  0  0  0
   -3.6821    1.6684    1.0049 O   0  0  0  0  0
   -2.8725    2.0647   -1.3375 O   0  0  0  0  0
   -2.7329    1.3730   -0.0618 S   0  0  0  0  0
  1  9  1  0  0  0
  2  6  1  0  0  0
  3 10  1  0  0  0
  4 11  1  0  0  0
  5 12  1  0  0  0
  7  8  1  0  0  0
  8 13  1  0  0  0
 10 22  1  0  0  0
 11 23  1  0  0  0
 13 24  1  0  0  0
 14 19  1  0  0  0
 15 20  1  0  0  0
 16 21  1  0  0  0
 17 21  1  0  0  0
 18 21  1  0  0  0
 19 23  1  0  0  0
 20 23  1  0  0  0
 21  9  1  0  0  0
 28 12  1  0  0  0
 28 22  1  0  0  0
  1  5  2  0  0  0
  2  9  2  0  0  0
  3  4  2  0  0  0
  6 12  2  0  0  0
  7 10  2  0  0  0
  8 11  2  0  0  0
 13 25  2  0  0  0
 28 26  2  0  0  0
 28 27  2  0  0  0
M  CHG  1  24  -1
M  END
> <rmsd>
0.710665047

$$$$
ZINC33253511


 28 29  0  0  0  0  0  0  0  0999 V2000
   -0.1066    2.5015   -1.5742 C   0  0  0  0  0
    0.8689    2.5245   -2.5709 C   0  0  0  0  0
    0.8583    0.4768   -0.6761 C   0  0  0  0  0
   -3.3062   -3.1218   -0.7177 C   0  0  0  0  0
   -3.3756   -1.1948    0.7379 C   0  0  0  0  0
   -2.7424   -0.9362   -1.5792 C   0  0  0  0  0
    1.8339    0.4998   -1.6729 C   0  0  0  0  0
   -3.5403   -2.5657    0.5399 C   0  0  0  0  0
   -2.9072   -2.3071   -1.7773 C   0  0  0  0  0
   -0.1119    1.4777   -0.6269 C   0  0  0  0  0
    1.8392    1.5236   -2.6201 C   0  0  0  0  0
   -2.9766   -0.3801   -0.3217 C   0  0  0  0  0
    2.8490   -0.5699   -1.7022 C   0  0  0  0  0
   -3.9667   -3.4369    1.6727 C   0  0  0  0  0
   -2.6567   -2.9019   -3.1217 C   0  0  0  0  0
    5.3049    4.4490   -3.7022 C   0  0  0  0  0
    1.4002    0.9781   -7.1565 C   0  0  0  0  0
    3.9810    3.7168   -3.8694 C   0  0  0  0  0
    1.6832    1.6937   -5.8433 C   0  0  0  0  0
    4.0607    2.2531   -3.4527 C   0  0  0  0  0
    2.5624    0.8762   -4.9045 C   0  0  0  0  0
   -1.1112    1.4542    0.3927 N   0  0  0  0  0
    2.8129    1.5641   -3.6330 N   0  0  0  0  0
    2.6047   -1.6333   -2.3837 O   0  0  0  0  0
    3.9419   -0.4012   -1.0450 O   0  0  0  0  0
   -3.5970    1.7231    1.0632 O   0  0  0  0  0
   -2.9648    2.0178   -1.3478 O   0  0  0  0  0
   -2.7677    1.3595   -0.0707 S   0  0  0  0  0
  1 10  1  0  0  0
  2 11  1  0  0  0
  3  7  1  0  0  0
  4  8  1  0  0  0
  5 12  1  0  0  0
  6  9  1  0  0  0
  7 13  1  0  0  0
 10 22  1  0  0  0
 11 23  1  0  0  0
 13 24  1  0  0  0
 14  8  1  0  0  0
 15  9  1  0  0  0
 16 18  1  0  0  0
 17 19  1  0  0  0
 18 20  1  0  0  0
 19 21  1  0  0  0
 20 23  1  0  0  0
 21 23  1  0  0  0
 28 12  1  0  0  0
 28 22  1  0  0  0
  1  2  2  0  0  0
  3 10  2  0  0  0
  4  9  2  0  0  0
  5  8  2  0  0  0
  6 12  2  0  0  0
  7 11  2  0  0  0
 13 25  2  0  0  0
 28 26  2  0  0  0
 28 27  2  0  0  0
M  CHG  1  24  -1
M  END
> <rmsd>
0.526212513

$$$$
ZINC33253511


 28 29  0  0  0  0  0  0  0  0999 V2000
   -0.0378    2.7669   -1.2901 C   0  0  0  0  0
    1.0214    2.8835   -2.1901 C   0  0  0  0  0
    0.9952    0.8062   -0.3279 C   0  0  0  0  0
   -2.8524   -3.1010   -0.8021 C   0  0  0  0  0
   -3.2078   -1.2125    0.6621 C   0  0  0  0  0
   -2.3840   -0.8629   -1.5820 C   0  0  0  0  0
    2.0545    0.9228   -1.2280 C   0  0  0  0  0
   -3.2454   -2.5881    0.4340 C   0  0  0  0  0
   -2.4216   -2.2385   -1.8102 C   0  0  0  0  0
   -0.0509    1.7283   -0.3590 C   0  0  0  0  0
    2.0676    1.9614   -2.1590 C   0  0  0  0  0
   -2.7770   -0.3499   -0.3460 C   0  0  0  0  0
    3.1486   -0.0649   -1.1736 C   0  0  0  0  0
   -3.7057   -3.5104    1.5117 C   0  0  0  0  0
   -2.0013   -2.7872   -3.1317 C   0  0  0  0  0
    5.3788    5.1645   -2.8767 C   0  0  0  0  0
    2.0966    1.4680   -6.7224 C   0  0  0  0  0
    4.1377    4.3358   -3.1761 C   0  0  0  0  0
    2.1992    2.1788   -5.3804 C   0  0  0  0  0
    4.2928    2.8750   -2.7703 C   0  0  0  0  0
    3.0486    1.4141   -4.3722 C   0  0  0  0  0
   -1.1357    1.6089    0.5616 N   0  0  0  0  0
    3.1251    2.0954   -3.0751 N   0  0  0  0  0
    3.0529   -1.1311   -1.8870 O   0  0  0  0  0
    4.1590    0.1752   -0.4145 O   0  0  0  0  0
   -3.6865    1.6732    0.9980 O   0  0  0  0  0
   -2.8579    2.0604   -1.3393 O   0  0  0  0  0
   -2.7295    1.3957   -0.0568 S   0  0  0  0  0
  1 10  1  0  0  0
  2 11  1  0  0  0
  3  7  1  0  0  0
  4  8  1  0  0  0
  5 12  1  0  0  0
  6  9  1  0  0  0
  7 13  1  0  0  0
 10 22  1  0  0  0
 11 23  1  0  0  0
 13 24  1  0  0  0
 14  8  1  0  0  0
 15  9  1  0  0  0
 16 18  1  0  0  0
 17 19  1  0  0  0
 18 20  1  0  0  0
 19 21  1  0  0  0
 20 23  1  0  0  0
 21 23  1  0  0  0
 28 12  1  0  0  0
 28 22  1  0  0  0
  1  2  2  0  0  0
  3 10  2  0  0  0
  4  9  2  0  0  0
  5  8  2  0  0  0
  6 12  2  0  0  0
  7 11  2  0  0  0
 13 25  2  0  0  0
 28 26  2  0  0  0
 28 27  2  0  0  0
M  CHG  1  24  -1
M  END
> <rmsd>
0.707052588

$$$$
ZINC16925201


 27 29  0  0  0  0  0  0  0  0999 V2000
    1.3158   -1.3416    1.6519 C   0  0  0  0  0
    2.2262   -1.5080    0.6084 C   0  0  0  0  0
   -3.3327   -1.0959    0.5282 C   0  0  0  0  0
   -4.1297   -1.5535   -1.7060 C   0  0  0  0  0
    0.3891   -0.2999    1.6096 C   0  0  0  0  0
   -3.5108   -2.4372    0.8666 C   0  0  0  0  0
   -4.3077   -2.8950   -1.3677 C   0  0  0  0  0
    1.2836    0.4092   -0.5198 C   0  0  0  0  0
    2.2101   -0.6326   -0.4774 C   0  0  0  0  0
   -3.6423   -0.6540   -0.7580 C   0  0  0  0  0
    0.3731    0.5755    0.5237 C   0  0  0  0  0
   -3.9982   -3.3368   -0.0813 C   0  0  0  0  0
   -3.5808    1.7492   -0.1554 C   0  0  0  0  0
   -3.1650    1.1204   -2.4085 C   0  0  0  0  0
    3.1719   -0.8085   -1.5780 C   0  0  0  0  0
   -0.7229    2.5901   -0.5166 C   0  0  0  0  0
   -3.1957    3.0959   -0.7217 C   0  0  0  0  0
   -1.8540    3.5458   -0.1672 C   0  0  0  0  0
   -3.4581    0.7301   -1.1072 N   0  0  0  0  0
   -0.5671    1.6325    0.4816 N   0  0  0  0  0
    3.1361    0.0130   -2.5692 O   0  0  0  0  0
   -3.9689    1.6501    1.0064 O   0  0  0  0  0
   -2.9196    0.4367   -3.3911 O   0  0  0  0  0
    4.0170   -1.7780   -1.5134 O   0  0  0  0  0
   -0.0743    2.7005   -1.5517 O   0  0  0  0  0
   -3.1079    2.8716   -2.5075 S   0  0  0  0  0
   -4.2179   -4.9921    0.3363 Cl  0  0  0  0  0
  1  2  1  0  0  0
  3 10  1  0  0  0
  4  7  1  0  0  0
  5 11  1  0  0  0
  6 12  1  0  0  0
  8  9  1  0  0  0
  9 15  1  0  0  0
 10 19  1  0  0  0
 11 20  1  0  0  0
 12 27  1  0  0  0
 13 19  1  0  0  0
 14 19  1  0  0  0
 14 26  1  0  0  0
 15 21  1  0  0  0
 16 20  1  0  0  0
 17 13  1  0  0  0
 17 18  1  0  0  0
 17 26  1  0  0  0
 18 16  1  0  0  0
  1  5  2  0  0  0
  2  9  2  0  0  0
  3  6  2  0  0  0
  4 10  2  0  0  0
  7 12  2  0  0  0
  8 11  2  0  0  0
 13 22  2  0  0  0
 14 23  2  0  0  0
 15 24  2  0  0  0
 16 25  2  0  0  0
M  CHG  1  21  -1
M  END
> <rmsd>
0.330181926

$$$$
ZINC05855811


 27 29  0  0  0  0  0  0  0  0999 V2000
    5.8125    0.5663   -2.6009 C   0  0  0  0  0
    4.7410   -0.7371   -4.3301 C   0  0  0  0  0
   -3.3608   -2.5912    0.3930 C   0  0  0  0  0
   -3.0830   -2.1433   -1.9648 C   0  0  0  0  0
   -3.2267   -1.2303    0.6674 C   0  0  0  0  0
   -2.9489   -0.7823   -1.6905 C   0  0  0  0  0
    7.0129    0.5203   -3.3100 C   0  0  0  0  0
    5.9412   -0.7829   -5.0392 C   0  0  0  0  0
    4.6766   -0.0625   -3.1109 C   0  0  0  0  0
   -3.2890   -3.0478   -0.9232 C   0  0  0  0  0
   -3.0207   -0.3257   -0.3742 C   0  0  0  0  0
    7.0771   -0.1543   -4.5292 C   0  0  0  0  0
    1.3609    1.3807   -2.1459 C   0  0  0  0  0
    0.2870    2.0983   -2.8993 C   0  0  0  0  0
   -0.3870    1.6349   -0.9670 C   0  0  0  0  0
    2.6741    1.0734   -2.7271 C   0  0  0  0  0
    3.4245   -0.0130   -2.3720 C   0  0  0  0  0
    0.8983    1.1195   -0.9697 N   0  0  0  0  0
   -0.7938    2.2134   -2.0592 N   0  0  0  0  0
   -3.4249   -4.4238   -1.2010 N   0  0  0  0  0
   -1.1766    1.5120    0.1917 N   0  0  0  0  0
    3.1309   -0.9169   -1.5065 O   0  0  0  0  0
    0.4213    2.4803   -4.0454 O   0  0  0  0  0
   -3.5263    1.6562    1.2311 O   0  0  0  0  0
   -3.2364    2.1228   -1.2240 O   0  0  0  0  0
   -2.8506    1.4001   -0.0268 S   0  0  0  0  0
    8.5575   -0.2105   -5.4048 Cl  0  0  0  0  0
  1  7  1  0  0  0
  2  9  1  0  0  0
  3 10  1  0  0  0
  4  6  1  0  0  0
  5 11  1  0  0  0
  8 12  1  0  0  0
  9 17  1  0  0  0
 10 20  1  0  0  0
 12 27  1  0  0  0
 13 14  1  0  0  0
 13 16  1  0  0  0
 14 19  1  0  0  0
 15 18  1  0  0  0
 15 21  1  0  0  0
 17 22  1  0  0  0
 26 11  1  0  0  0
 26 21  1  0  0  0
  1  9  2  0  0  0
  2  8  2  0  0  0
  3  5  2  0  0  0
  4 10  2  0  0  0
  6 11  2  0  0  0
  7 12  2  0  0  0
 13 18  2  0  0  0
 14 23  2  0  0  0
 15 19  2  0  0  0
 16 17  2  0  0  0
 26 24  2  0  0  0
 26 25  2  0  0  0
M  CHG  1  22  -1
M  END
> <rmsd>
0.608958006

$$$$
ZINC16923386


 27 29  0  0  0  0  0  0  0  0999 V2000
   -3.7857   -2.4144    0.7700 C   0  0  0  0  0
   -4.9947   -2.6486   -1.3085 C   0  0  0  0  0
   -3.5862   -1.0603    0.5016 C   0  0  0  0  0
   -4.7953   -1.2944   -1.5770 C   0  0  0  0  0
    1.3784   -1.6175    0.3168 C   0  0  0  0  0
   -4.4900   -3.2086   -0.1350 C   0  0  0  0  0
   -4.0911   -0.5003   -0.6720 C   0  0  0  0  0
    1.5810   -1.0120   -0.9056 C   0  0  0  0  0
    0.1565    0.4243   -0.0584 C   0  0  0  0  0
   -3.7737    1.8401    0.0790 C   0  0  0  0  0
   -3.8049    1.3772   -2.2510 C   0  0  0  0  0
   -0.9785    2.5679   -0.7355 C   0  0  0  0  0
    3.8780   -0.9311   -1.8056 C   0  0  0  0  0
   -3.4120    3.2081   -0.4506 C   0  0  0  0  0
   -4.7025   -4.6565    0.1515 C   0  0  0  0  0
    2.4676   -1.5080   -1.9767 C   0  0  0  0  0
   -1.9676    3.5457   -0.1189 C   0  0  0  0  0
    0.8810    0.1586   -1.1228 N   0  0  0  0  0
   -3.8858    0.8970   -0.9494 N   0  0  0  0  0
   -0.7079    1.5259    0.1467 N   0  0  0  0  0
    4.4720   -1.2691   -0.7428 O   0  0  0  0  0
   -3.9544    1.6659    1.2820 O   0  0  0  0  0
   -3.7813    0.7644   -3.3082 O   0  0  0  0  0
   -0.5187    2.7304   -1.8609 O   0  0  0  0  0
    4.2739   -0.1901   -2.7495 O   0  0  0  0  0
    0.2696   -0.6911    1.2409 S   0  0  0  0  0
   -3.6573    3.1257   -2.2340 S   0  0  0  0  0
  1  6  1  0  0  0
  2  4  1  0  0  0
  3  7  1  0  0  0
  5 26  1  0  0  0
  7 19  1  0  0  0
  8 18  1  0  0  0
  9 20  1  0  0  0
  9 26  1  0  0  0
 10 19  1  0  0  0
 11 19  1  0  0  0
 11 27  1  0  0  0
 12 20  1  0  0  0
 13 21  1  0  0  0
 14 10  1  0  0  0
 14 17  1  0  0  0
 14 27  1  0  0  0
 15  6  1  0  0  0
 16  8  1  0  0  0
 16 13  1  0  0  0
 17 12  1  0  0  0
  1  3  2  0  0  0
  2  6  2  0  0  0
  4  7  2  0  0  0
  5  8  2  0  0  0
  9 18  2  0  0  0
 10 22  2  0  0  0
 11 23  2  0  0  0
 12 24  2  0  0  0
 13 25  2  0  0  0
M  CHG  1  21  -1
M  END
> <rmsd>
0.542248309

$$$$
ZINC35397324


 28 30  0  0  0  0  0  0  0  0999 V2000
   -2.4335   -2.2554   -1.7861 C   0  0  0  0  0
   -3.2786   -2.5846    0.4532 C   0  0  0  0  0
   -2.3869   -0.8788   -1.5663 C   0  0  0  0  0
   -3.2320   -1.2079    0.6730 C   0  0  0  0  0
    1.0041    0.7849   -0.3096 C   0  0  0  0  0
    0.0110    2.7192   -1.2734 C   0  0  0  0  0
    2.0564    0.9143   -1.2093 C   0  0  0  0  0
   -0.0420    1.7005   -0.3357 C   0  0  0  0  0
   -2.8795   -3.1083   -0.7765 C   0  0  0  0  0
   -2.7860   -0.3550   -0.3367 C   0  0  0  0  0
    2.0153    1.9681   -2.1079 C   0  0  0  0  0
    3.1635   -0.0569   -1.1795 C   0  0  0  0  0
    4.0486    1.6429   -5.2292 C   0  0  0  0  0
    5.4768    2.5066   -3.3657 C   0  0  0  0  0
    2.7957    2.0544   -4.4563 C   0  0  0  0  0
    4.2204    2.9206   -2.6013 C   0  0  0  0  0
    5.2456    2.5327   -4.8802 C   0  0  0  0  0
    6.4968    2.0805   -5.6291 C   0  0  0  0  0
   -2.5015   -4.9194   -2.2707 C   0  0  0  0  0
    1.0163    2.8772   -2.1633 N   0  0  0  0  0
    3.0715    2.1046   -3.0167 N   0  0  0  0  0
   -1.1344    1.5941    0.5732 N   0  0  0  0  0
    3.0765   -1.1164   -1.9056 O   0  0  0  0  0
    4.1802    0.1865   -0.4284 O   0  0  0  0  0
   -3.6906    1.6840    0.9861 O   0  0  0  0  0
   -2.8363    2.0497   -1.3454 O   0  0  0  0  0
   -2.9246   -4.4515   -0.9910 O   0  0  0  0  0
   -2.7260    1.3917   -0.0577 S   0  0  0  0  0
  1  9  1  0  0  0
  2  4  1  0  0  0
  3 10  1  0  0  0
  5  8  1  0  0  0
  6 20  1  0  0  0
  7 11  1  0  0  0
  7 12  1  0  0  0
  8 22  1  0  0  0
  9 27  1  0  0  0
 11 21  1  0  0  0
 12 23  1  0  0  0
 13 15  1  0  0  0
 13 17  1  0  0  0
 14 16  1  0  0  0
 14 17  1  0  0  0
 15 21  1  0  0  0
 16 21  1  0  0  0
 17 18  1  0  0  0
 19 27  1  0  0  0
 28 10  1  0  0  0
 28 22  1  0  0  0
  1  3  2  0  0  0
  2  9  2  0  0  0
  4 10  2  0  0  0
  5  7  2  0  0  0
  6  8  2  0  0  0
 11 20  2  0  0  0
 12 24  2  0  0  0
 28 25  2  0  0  0
 28 26  2  0  0  0
M  CHG  1  23  -1
M  END
> <rmsd>
0.689340711

$$$$
ZINC35397324


 28 30  0  0  0  0  0  0  0  0999 V2000
   -2.9164   -2.3217   -1.7546 C   0  0  0  0  0
   -3.5694   -2.5601    0.5592 C   0  0  0  0  0
   -2.7440   -0.9507   -1.5648 C   0  0  0  0  0
   -3.3969   -1.1890    0.7491 C   0  0  0  0  0
    0.8677    0.4571   -0.6597 C   0  0  0  0  0
   -0.0608    2.4524   -1.5613 C   0  0  0  0  0
    1.8373    0.4945   -1.6556 C   0  0  0  0  0
   -0.1030    1.4511   -0.6046 C   0  0  0  0  0
   -3.3292   -3.1265   -0.6927 C   0  0  0  0  0
   -2.9842   -0.3843   -0.3129 C   0  0  0  0  0
    1.7925    1.5386   -2.5653 C   0  0  0  0  0
    2.8646   -0.5597   -1.7118 C   0  0  0  0  0
    3.4915    1.0227   -5.8562 C   0  0  0  0  0
    5.1510    1.7924   -4.1497 C   0  0  0  0  0
    2.3522    1.5388   -4.9774 C   0  0  0  0  0
    4.0077    2.3111   -3.2791 C   0  0  0  0  0
    4.7807    1.8202   -5.6363 C   0  0  0  0  0
    5.9173    1.2640   -6.4903 C   0  0  0  0  0
   -3.2337   -4.9774   -2.1829 C   0  0  0  0  0
    0.8652    2.5222   -2.5437 N   0  0  0  0  0
    2.7655    1.5827   -3.5709 N   0  0  0  0  0
   -1.1097    1.4398    0.4039 N   0  0  0  0  0
    2.6287   -1.6169   -2.4075 O   0  0  0  0  0
    3.9633   -0.3882   -1.0632 O   0  0  0  0  0
   -3.6012    1.7330    1.0516 O   0  0  0  0  0
   -2.9451    2.0062   -1.3556 O   0  0  0  0  0
   -3.4971   -4.4643   -0.8779 O   0  0  0  0  0
   -2.7646    1.3553   -0.0721 S   0  0  0  0  0
  1  9  1  0  0  0
  2  4  1  0  0  0
  3 10  1  0  0  0
  5  8  1  0  0  0
  6 20  1  0  0  0
  7 11  1  0  0  0
  7 12  1  0  0  0
  8 22  1  0  0  0
  9 27  1  0  0  0
 11 21  1  0  0  0
 12 23  1  0  0  0
 13 15  1  0  0  0
 13 17  1  0  0  0
 14 16  1  0  0  0
 14 17  1  0  0  0
 15 21  1  0  0  0
 16 21  1  0  0  0
 17 18  1  0  0  0
 19 27  1  0  0  0
 28 10  1  0  0  0
 28 22  1  0  0  0
  1  3  2  0  0  0
  2  9  2  0  0  0
  4 10  2  0  0  0
  5  7  2  0  0  0
  6  8  2  0  0  0
 11 20  2  0  0  0
 12 24  2  0  0  0
 28 25  2  0  0  0
 28 26  2  0  0  0
M  CHG  1  23  -1
M  END
> <rmsd>
0.510247946

$$$$
ZINC35397698


 28 30  0  0  0  0  0  0  0  0999 V2000
   -3.2792   -2.5855    0.4520 C   0  0  0  0  0
   -2.4332   -2.2558   -1.7869 C   0  0  0  0  0
   -3.2324   -1.2090    0.6724 C   0  0  0  0  0
   -2.3864   -0.8793   -1.5665 C   0  0  0  0  0
    1.0042    0.7843   -0.3098 C   0  0  0  0  0
    0.0110    2.7184   -1.2737 C   0  0  0  0  0
    2.0566    0.9137   -1.2095 C   0  0  0  0  0
   -2.8796   -3.1089   -0.7776 C   0  0  0  0  0
   -0.0420    1.6998   -0.3360 C   0  0  0  0  0
   -2.7860   -0.3559   -0.3369 C   0  0  0  0  0
    2.0154    1.9674   -2.1082 C   0  0  0  0  0
    3.1636   -0.0576   -1.1797 C   0  0  0  0  0
    4.2265    2.9191   -2.6187 C   0  0  0  0  0
    2.8054    2.0573   -4.4582 C   0  0  0  0  0
    5.4367    2.5443   -3.4664 C   0  0  0  0  0
    4.0916    1.7289   -5.2082 C   0  0  0  0  0
   -1.5350   -5.1786   -1.2898 C   0  0  0  0  0
   -3.8957   -4.9648   -2.1479 C   0  0  0  0  0
   -2.9275   -4.5808   -1.0129 C   0  0  0  0  0
    1.0162    2.8764   -2.1637 N   0  0  0  0  0
    3.0705    2.1038   -3.0161 N   0  0  0  0  0
   -1.1343    1.5934    0.5730 N   0  0  0  0  0
    3.0767   -1.1172   -1.9057 O   0  0  0  0  0
    4.1803    0.1861   -0.4286 O   0  0  0  0  0
   -3.6906    1.6833    0.9859 O   0  0  0  0  0
   -2.8363    2.0488   -1.3457 O   0  0  0  0  0
    5.1246    2.6483   -4.8555 O   0  0  0  0  0
   -2.7260    1.3909   -0.0580 S   0  0  0  0  0
  1  8  1  0  0  0
  2  4  1  0  0  0
  3 10  1  0  0  0
  5  9  1  0  0  0
  6 20  1  0  0  0
  7 11  1  0  0  0
  7 12  1  0  0  0
  9 22  1  0  0  0
 11 21  1  0  0  0
 12 23  1  0  0  0
 13 15  1  0  0  0
 13 21  1  0  0  0
 14 16  1  0  0  0
 14 21  1  0  0  0
 15 27  1  0  0  0
 16 27  1  0  0  0
 17 19  1  0  0  0
 18 19  1  0  0  0
 19  8  1  0  0  0
 28 10  1  0  0  0
 28 22  1  0  0  0
  1  3  2  0  0  0
  2  8  2  0  0  0
  4 10  2  0  0  0
  5  7  2  0  0  0
  6  9  2  0  0  0
 11 20  2  0  0  0
 12 24  2  0  0  0
 28 25  2  0  0  0
 28 26  2  0  0  0
M  CHG  1  23  -1
M  END
> <rmsd>
0.6895051

$$$$
ZINC35397698


 28 30  0  0  0  0  0  0  0  0999 V2000
   -3.5704   -2.5610    0.5583 C   0  0  0  0  0
   -2.9165   -2.3223   -1.7552 C   0  0  0  0  0
   -3.3976   -1.1900    0.7486 C   0  0  0  0  0
   -2.7437   -0.9513   -1.5650 C   0  0  0  0  0
    0.8678    0.4561   -0.6597 C   0  0  0  0  0
   -0.0607    2.4514   -1.5616 C   0  0  0  0  0
    1.8374    0.4933   -1.6557 C   0  0  0  0  0
   -3.3298   -3.1271   -0.6936 C   0  0  0  0  0
   -0.1029    1.4501   -0.6048 C   0  0  0  0  0
   -2.9843   -0.3852   -0.3131 C   0  0  0  0  0
    1.7926    1.5374   -2.5655 C   0  0  0  0  0
    2.8646   -0.5609   -1.7118 C   0  0  0  0  0
    4.0121    2.3082   -3.2969 C   0  0  0  0  0
    2.3621    1.5402   -4.9802 C   0  0  0  0  0
    5.1048    1.8311   -4.2468 C   0  0  0  0  0
    3.5428    1.1045   -5.8406 C   0  0  0  0  0
   -2.2020   -5.3008   -1.2915 C   0  0  0  0  0
   -4.6098   -4.9126   -1.9296 C   0  0  0  0  0
   -3.5123   -4.5932   -0.8969 C   0  0  0  0  0
    0.8653    2.5209   -2.5440 N   0  0  0  0  0
    2.7648    1.5814   -3.5701 N   0  0  0  0  0
   -1.1097    1.4390    0.4037 N   0  0  0  0  0
    2.6287   -1.6182   -2.4073 O   0  0  0  0  0
    3.9633   -0.3893   -1.0632 O   0  0  0  0  0
   -3.6012    1.7323    1.0513 O   0  0  0  0  0
   -2.9450    2.0051   -1.3559 O   0  0  0  0  0
    4.6720    1.9442   -5.6023 O   0  0  0  0  0
   -2.7645    1.3545   -0.0724 S   0  0  0  0  0
  1  8  1  0  0  0
  2  4  1  0  0  0
  3 10  1  0  0  0
  5  9  1  0  0  0
  6 20  1  0  0  0
  7 11  1  0  0  0
  7 12  1  0  0  0
  9 22  1  0  0  0
 11 21  1  0  0  0
 12 23  1  0  0  0
 13 15  1  0  0  0
 13 21  1  0  0  0
 14 16  1  0  0  0
 14 21  1  0  0  0
 15 27  1  0  0  0
 16 27  1  0  0  0
 17 19  1  0  0  0
 18 19  1  0  0  0
 19  8  1  0  0  0
 28 10  1  0  0  0
 28 22  1  0  0  0
  1  3  2  0  0  0
  2  8  2  0  0  0
  4 10  2  0  0  0
  5  7  2  0  0  0
  6  9  2  0  0  0
 11 20  2  0  0  0
 12 24  2  0  0  0
 28 25  2  0  0  0
 28 26  2  0  0  0
M  CHG  1  23  -1
M  END
> <rmsd>
0.51025486

$$$$
ZINC35397419


 28 30  0  0  0  0  0  0  0  0999 V2000
   -2.9163   -2.3216   -1.7549 C   0  0  0  0  0
   -3.5695   -2.5601    0.5589 C   0  0  0  0  0
   -2.7438   -0.9505   -1.5649 C   0  0  0  0  0
   -3.3971   -1.1890    0.7489 C   0  0  0  0  0
    0.8680    0.4570   -0.6590 C   0  0  0  0  0
   -0.0604    2.4525   -1.5604 C   0  0  0  0  0
    1.8377    0.4944   -1.6548 C   0  0  0  0  0
   -0.1027    1.4509   -0.6040 C   0  0  0  0  0
   -3.3293   -3.1263   -0.6931 C   0  0  0  0  0
   -2.9842   -0.3842   -0.3130 C   0  0  0  0  0
    1.7930    1.5387   -2.5643 C   0  0  0  0  0
    2.8649   -0.5598   -1.7110 C   0  0  0  0  0
    3.9559    3.4845   -5.6023 C   0  0  0  0  0
    3.1827    2.5897   -6.5698 C   0  0  0  0  0
    4.7900    2.7004   -4.5889 C   0  0  0  0  0
    2.0849    1.7431   -5.9284 C   0  0  0  0  0
    4.0218    2.3000   -3.3280 C   0  0  0  0  0
    2.5876    0.8301   -4.8122 C   0  0  0  0  0
   -3.2337   -4.9770   -2.1835 C   0  0  0  0  0
    0.8657    2.5222   -2.5428 N   0  0  0  0  0
    2.7663    1.5829   -3.5699 N   0  0  0  0  0
   -1.1096    1.4397    0.4044 N   0  0  0  0  0
    2.6290   -1.6169   -2.4068 O   0  0  0  0  0
    3.9634   -0.3883   -1.0622 O   0  0  0  0  0
   -3.6012    1.7330    1.0518 O   0  0  0  0  0
   -2.9448    2.0064   -1.3552 O   0  0  0  0  0
   -3.4973   -4.4641   -0.8784 O   0  0  0  0  0
   -2.7645    1.3554   -0.0719 S   0  0  0  0  0
  1  9  1  0  0  0
  2  4  1  0  0  0
  3 10  1  0  0  0
  5  8  1  0  0  0
  6 20  1  0  0  0
  7 11  1  0  0  0
  7 12  1  0  0  0
  8 22  1  0  0  0
  9 27  1  0  0  0
 11 21  1  0  0  0
 12 23  1  0  0  0
 13 14  1  0  0  0
 13 15  1  0  0  0
 14 16  1  0  0  0
 15 17  1  0  0  0
 16 18  1  0  0  0
 17 21  1  0  0  0
 18 21  1  0  0  0
 19 27  1  0  0  0
 28 10  1  0  0  0
 28 22  1  0  0  0
  1  3  2  0  0  0
  2  9  2  0  0  0
  4 10  2  0  0  0
  5  7  2  0  0  0
  6  8  2  0  0  0
 11 20  2  0  0  0
 12 24  2  0  0  0
 28 25  2  0  0  0
 28 26  2  0  0  0
M  CHG  1  23  -1
M  END
> <rmsd>
0.5103333

$$$$
ZINC35397419


 28 30  0  0  0  0  0  0  0  0999 V2000
   -2.4337   -2.2552   -1.7864 C   0  0  0  0  0
   -3.2790   -2.5845    0.4528 C   0  0  0  0  0
   -2.3869   -0.8786   -1.5664 C   0  0  0  0  0
   -3.2323   -1.2079    0.6729 C   0  0  0  0  0
    1.0042    0.7847   -0.3093 C   0  0  0  0  0
    0.0112    2.7191   -1.2728 C   0  0  0  0  0
    2.0565    0.9141   -1.2088 C   0  0  0  0  0
   -0.0419    1.7003   -0.3353 C   0  0  0  0  0
   -2.8798   -3.1081   -0.7769 C   0  0  0  0  0
   -2.7862   -0.3550   -0.3367 C   0  0  0  0  0
    2.0155    1.9680   -2.1073 C   0  0  0  0  0
    3.1634   -0.0573   -1.1793 C   0  0  0  0  0
    4.2937    4.1278   -4.9070 C   0  0  0  0  0
    3.6860    3.1940   -5.9526 C   0  0  0  0  0
    5.0884    3.3918   -3.8280 C   0  0  0  0  0
    2.6026    2.2545   -5.4266 C   0  0  0  0  0
    4.2397    2.9113   -2.6494 C   0  0  0  0  0
    3.0687    1.3627   -4.2777 C   0  0  0  0  0
   -2.5021   -4.9191   -2.2714 C   0  0  0  0  0
    1.0165    2.8772   -2.1627 N   0  0  0  0  0
    3.0718    2.1046   -3.0162 N   0  0  0  0  0
   -1.1343    1.5940    0.5736 N   0  0  0  0  0
    3.0764   -1.1166   -1.9055 O   0  0  0  0  0
    4.1801    0.1861   -0.4281 O   0  0  0  0  0
   -3.6906    1.6840    0.9864 O   0  0  0  0  0
   -2.8362    2.0500   -1.3450 O   0  0  0  0  0
   -2.9251   -4.4513   -0.9915 O   0  0  0  0  0
   -2.7260    1.3918   -0.0574 S   0  0  0  0  0
  1  9  1  0  0  0
  2  4  1  0  0  0
  3 10  1  0  0  0
  5  8  1  0  0  0
  6 20  1  0  0  0
  7 11  1  0  0  0
  7 12  1  0  0  0
  8 22  1  0  0  0
  9 27  1  0  0  0
 11 21  1  0  0  0
 12 23  1  0  0  0
 13 14  1  0  0  0
 13 15  1  0  0  0
 14 16  1  0  0  0
 15 17  1  0  0  0
 16 18  1  0  0  0
 17 21  1  0  0  0
 18 21  1  0  0  0
 19 27  1  0  0  0
 28 10  1  0  0  0
 28 22  1  0  0  0
  1  3  2  0  0  0
  2  9  2  0  0  0
  4 10  2  0  0  0
  5  7  2  0  0  0
  6  8  2  0  0  0
 11 20  2  0  0  0
 12 24  2  0  0  0
 28 25  2  0  0  0
 28 26  2  0  0  0
M  CHG  1  23  -1
M  END
> <rmsd>
0.689357221

$$$$
ZINC64472379


 28 30  0  0  0  0  0  0  0  0999 V2000
   -3.7734   -2.5040    0.6780 C   0  0  0  0  0
   -2.9057   -2.3907   -1.5739 C   0  0  0  0  0
   -3.5776   -1.1305    0.8225 C   0  0  0  0  0
   -2.7099   -1.0173   -1.4294 C   0  0  0  0  0
    0.7479    0.2551   -0.3282 C   0  0  0  0  0
    1.9885    1.2514   -2.0958 C   0  0  0  0  0
    1.8133    0.1927   -1.2193 C   0  0  0  0  0
   -0.0980    1.3586   -0.3405 C   0  0  0  0  0
   -3.4374   -3.1341   -0.5203 C   0  0  0  0  0
   -3.0458   -0.3872   -0.2312 C   0  0  0  0  0
    0.1628    2.3651   -1.2562 C   0  0  0  0  0
    2.7252   -0.9587   -1.2303 C   0  0  0  0  0
   -2.1436    5.0637   -0.0813 C   0  0  0  0  0
   -2.1998    4.9194   -2.5783 C   0  0  0  0  0
   -0.8164    4.3056   -0.0699 C   0  0  0  0  0
   -0.8703    4.1671   -2.5597 C   0  0  0  0  0
   -2.3279    5.8610   -1.3763 C   0  0  0  0  0
   -3.6763    6.5770   -1.3875 C   0  0  0  0  0
   -4.1766   -5.1731    0.4555 C   0  0  0  0  0
    1.1878    2.3400   -2.1374 N   0  0  0  0  0
   -0.6843    3.4796   -1.2747 N   0  0  0  0  0
   -1.1937    1.4224    0.5743 N   0  0  0  0  0
    3.6995   -0.9732   -2.0747 O   0  0  0  0  0
    2.5241   -1.9204   -0.3957 O   0  0  0  0  0
   -3.7208    1.8057    0.9777 O   0  0  0  0  0
   -2.8441    1.9509   -1.3696 O   0  0  0  0  0
   -3.6289   -4.4741   -0.6613 O   0  0  0  0  0
   -2.7982    1.3557   -0.0478 S   0  0  0  0  0
  1  9  1  0  0  0
  2  4  1  0  0  0
  3 10  1  0  0  0
  5  7  1  0  0  0
  6 20  1  0  0  0
  7 12  1  0  0  0
  8 11  1  0  0  0
  8 22  1  0  0  0
  9 27  1  0  0  0
 11 21  1  0  0  0
 12 23  1  0  0  0
 13 15  1  0  0  0
 13 17  1  0  0  0
 14 16  1  0  0  0
 14 17  1  0  0  0
 15 21  1  0  0  0
 16 21  1  0  0  0
 17 18  1  0  0  0
 19 27  1  0  0  0
 28 10  1  0  0  0
 28 22  1  0  0  0
  1  3  2  0  0  0
  2  9  2  0  0  0
  4 10  2  0  0  0
  5  8  2  0  0  0
  6  7  2  0  0  0
 11 20  2  0  0  0
 12 24  2  0  0  0
 28 25  2  0  0  0
 28 26  2  0  0  0
M  CHG  1  23  -1
M  END
> <rmsd>
0.414900333

$$$$
ZINC64472379


 28 30  0  0  0  0  0  0  0  0999 V2000
   -3.4765   -2.5724    0.5227 C   0  0  0  0  0
   -2.7665   -2.3110   -1.7717 C   0  0  0  0  0
   -3.3393   -1.1987    0.7217 C   0  0  0  0  0
   -2.6293   -0.9372   -1.5727 C   0  0  0  0  0
    0.8272    0.4622   -0.6332 C   0  0  0  0  0
    1.8975    1.6019   -2.4253 C   0  0  0  0  0
    1.8330    0.4964   -1.5924 C   0  0  0  0  0
   -0.0708    1.5194   -0.5372 C   0  0  0  0  0
   -3.1901   -3.1286   -0.7241 C   0  0  0  0  0
   -2.9156   -0.3811   -0.3259 C   0  0  0  0  0
    0.0790    2.5791   -1.4172 C   0  0  0  0  0
    2.7977   -0.6041   -1.7183 C   0  0  0  0  0
   -2.2743    5.0969    0.0338 C   0  0  0  0  0
   -2.4887    5.0644   -2.4586 C   0  0  0  0  0
   -0.9136    4.4093   -0.0768 C   0  0  0  0  0
   -1.1254    4.3825   -2.5619 C   0  0  0  0  0
   -2.5829    5.9420   -1.2060 C   0  0  0  0  0
   -3.9626    6.5863   -1.0959 C   0  0  0  0  0
   -3.7620   -5.2460    0.1955 C   0  0  0  0  0
    1.0433    2.6479   -2.3621 N   0  0  0  0  0
   -0.8212    3.6475   -1.3267 N   0  0  0  0  0
   -1.1053    1.4839    0.4477 N   0  0  0  0  0
    3.7134   -0.5290   -2.6228 O   0  0  0  0  0
    2.6997   -1.6123   -0.9207 O   0  0  0  0  0
   -3.6159    1.7158    1.0300 O   0  0  0  0  0
   -2.9049    2.0141   -1.3586 O   0  0  0  0  0
   -3.3244   -4.4689   -0.9183 O   0  0  0  0  0
   -2.7423    1.3621   -0.0733 S   0  0  0  0  0
  1  9  1  0  0  0
  2  4  1  0  0  0
  3 10  1  0  0  0
  5  7  1  0  0  0
  6 20  1  0  0  0
  7 12  1  0  0  0
  8 11  1  0  0  0
  8 22  1  0  0  0
  9 27  1  0  0  0
 11 21  1  0  0  0
 12 23  1  0  0  0
 13 15  1  0  0  0
 13 17  1  0  0  0
 14 16  1  0  0  0
 14 17  1  0  0  0
 15 21  1  0  0  0
 16 21  1  0  0  0
 17 18  1  0  0  0
 19 27  1  0  0  0
 28 10  1  0  0  0
 28 22  1  0  0  0
  1  3  2  0  0  0
  2  9  2  0  0  0
  4 10  2  0  0  0
  5  8  2  0  0  0
  6  7  2  0  0  0
 11 20  2  0  0  0
 12 24  2  0  0  0
 28 25  2  0  0  0
 28 26  2  0  0  0
M  CHG  1  23  -1
M  END
> <rmsd>
0.571995318

$$$$
ZINC35397398


 28 29  0  0  0  0  0  0  0  0999 V2000
    1.0040    0.7854   -0.3100 C   0  0  0  0  0
   -2.8808   -3.1082   -0.7770 C   0  0  0  0  0
   -3.2325   -1.2078    0.6726 C   0  0  0  0  0
   -2.3871   -0.8789   -1.5665 C   0  0  0  0  0
    0.0105    2.7195   -1.2738 C   0  0  0  0  0
    2.0562    0.9149   -1.2096 C   0  0  0  0  0
   -3.2798   -2.5844    0.4527 C   0  0  0  0  0
   -2.4344   -2.2555   -1.7866 C   0  0  0  0  0
   -0.0422    1.7009   -0.3361 C   0  0  0  0  0
   -2.7861   -0.3551   -0.3369 C   0  0  0  0  0
    2.0150    1.9687   -2.1083 C   0  0  0  0  0
    3.1634   -0.0562   -1.1800 C   0  0  0  0  0
   -3.7569   -3.4961    1.5320 C   0  0  0  0  0
   -2.0077   -2.8157   -3.1012 C   0  0  0  0  0
    2.1708    1.5856   -6.6880 C   0  0  0  0  0
    5.2748    5.2389   -2.7043 C   0  0  0  0  0
    2.2241    2.2597   -5.3244 C   0  0  0  0  0
    4.0639    4.3862   -3.0553 C   0  0  0  0  0
    3.0470    1.4738   -4.3107 C   0  0  0  0  0
    4.2381    2.9248   -2.6601 C   0  0  0  0  0
    1.0158    2.8777   -2.1637 N   0  0  0  0  0
   -1.1346    1.5944    0.5729 N   0  0  0  0  0
    3.0753    2.1058   -3.0208 N   0  0  0  0  0
    3.0765   -1.1158   -1.9059 O   0  0  0  0  0
    4.1801    0.1875   -0.4288 O   0  0  0  0  0
   -3.6909    1.6840    0.9859 O   0  0  0  0  0
   -2.8367    2.0498   -1.3456 O   0  0  0  0  0
   -2.7263    1.3917   -0.0580 S   0  0  0  0  0
  1  9  1  0  0  0
  2  7  1  0  0  0
  3 10  1  0  0  0
  4  8  1  0  0  0
  5 21  1  0  0  0
  6 11  1  0  0  0
  6 12  1  0  0  0
  9 22  1  0  0  0
 11 23  1  0  0  0
 12 24  1  0  0  0
 13  7  1  0  0  0
 14  8  1  0  0  0
 15 17  1  0  0  0
 16 18  1  0  0  0
 17 19  1  0  0  0
 18 20  1  0  0  0
 19 23  1  0  0  0
 20 23  1  0  0  0
 28 10  1  0  0  0
 28 22  1  0  0  0
  1  6  2  0  0  0
  2  8  2  0  0  0
  3  7  2  0  0  0
  4 10  2  0  0  0
  5  9  2  0  0  0
 11 21  2  0  0  0
 12 25  2  0  0  0
 28 26  2  0  0  0
 28 27  2  0  0  0
M  CHG  1  24  -1
M  END
> <rmsd>
0.689071894

$$$$
ZINC35397398


 28 29  0  0  0  0  0  0  0  0999 V2000
    0.8677    0.4573   -0.6597 C   0  0  0  0  0
   -3.3308   -3.1263   -0.6929 C   0  0  0  0  0
   -3.3976   -1.1888    0.7487 C   0  0  0  0  0
   -2.7443   -0.9509   -1.5650 C   0  0  0  0  0
   -0.0611    2.4526   -1.5614 C   0  0  0  0  0
    1.8373    0.4948   -1.6556 C   0  0  0  0  0
   -3.5708   -2.5598    0.5589 C   0  0  0  0  0
   -2.9174   -2.3218   -1.7549 C   0  0  0  0  0
   -0.1031    1.4512   -0.6048 C   0  0  0  0  0
   -2.9843   -0.3844   -0.3131 C   0  0  0  0  0
    1.7924    1.5388   -2.5654 C   0  0  0  0  0
    2.8647   -0.5593   -1.7117 C   0  0  0  0  0
   -4.0125   -3.4199    1.6942 C   0  0  0  0  0
   -2.6607   -2.9277   -3.0932 C   0  0  0  0  0
    1.4861    1.0958   -7.1320 C   0  0  0  0  0
    5.2225    4.5384   -3.5210 C   0  0  0  0  0
    1.7192    1.7782   -5.7917 C   0  0  0  0  0
    3.9221    3.7789   -3.7424 C   0  0  0  0  0
    2.5713    0.9414   -4.8450 C   0  0  0  0  0
    4.0203    2.3127   -3.3388 C   0  0  0  0  0
    0.8650    2.5223   -2.5438 N   0  0  0  0  0
   -1.1099    1.4400    0.4038 N   0  0  0  0  0
    2.7694    1.5831   -3.5749 N   0  0  0  0  0
    2.6288   -1.6166   -2.4073 O   0  0  0  0  0
    3.9633   -0.3876   -1.0630 O   0  0  0  0  0
   -3.6015    1.7331    1.0513 O   0  0  0  0  0
   -2.9453    2.0062   -1.3558 O   0  0  0  0  0
   -2.7648    1.3553   -0.0725 S   0  0  0  0  0
  1  9  1  0  0  0
  2  7  1  0  0  0
  3 10  1  0  0  0
  4  8  1  0  0  0
  5 21  1  0  0  0
  6 11  1  0  0  0
  6 12  1  0  0  0
  9 22  1  0  0  0
 11 23  1  0  0  0
 12 24  1  0  0  0
 13  7  1  0  0  0
 14  8  1  0  0  0
 15 17  1  0  0  0
 16 18  1  0  0  0
 17 19  1  0  0  0
 18 20  1  0  0  0
 19 23  1  0  0  0
 20 23  1  0  0  0
 28 10  1  0  0  0
 28 22  1  0  0  0
  1  6  2  0  0  0
  2  8  2  0  0  0
  3  7  2  0  0  0
  4 10  2  0  0  0
  5  9  2  0  0  0
 11 21  2  0  0  0
 12 25  2  0  0  0
 28 26  2  0  0  0
 28 27  2  0  0  0
M  CHG  1  24  -1
M  END
> <rmsd>
0.509878993

$$$$
ZINC35397660


 28 29  0  0  0  0  0  0  0  0999 V2000
   -3.5688   -2.5614    0.5526 C   0  0  0  0  0
   -2.9141   -2.3203   -1.7604 C   0  0  0  0  0
   -3.3967   -1.1905    0.7443 C   0  0  0  0  0
   -2.7419   -0.9494   -1.5688 C   0  0  0  0  0
    0.8691    0.4555   -0.6670 C   0  0  0  0  0
   -0.0893    2.4176   -1.6094 C   0  0  0  0  0
    1.8277    0.4768   -1.6740 C   0  0  0  0  0
   -3.3275   -3.1263   -0.6997 C   0  0  0  0  0
   -0.1111    1.4408   -0.6270 C   0  0  0  0  0
   -2.9832   -0.3846   -0.3164 C   0  0  0  0  0
    1.7626    1.4967   -2.6096 C   0  0  0  0  0
    2.8651   -0.5681   -1.7143 C   0  0  0  0  0
    1.7942    1.7130   -5.8630 C   0  0  0  0  0
    3.7753    3.7121   -3.7172 C   0  0  0  0  0
   -1.7503   -5.2777    0.8075 C   0  0  0  0  0
   -2.5170   -6.9177   -0.9205 C   0  0  0  0  0
   -3.5117   -4.6100   -0.9070 C   0  0  0  0  0
    2.4967    0.8331   -4.8858 C   0  0  0  0  0
    3.9692    2.2576   -3.4537 C   0  0  0  0  0
   -2.2420   -5.4396   -0.6330 C   0  0  0  0  0
    0.8255    2.4712   -2.6032 N   0  0  0  0  0
   -1.1161    1.4455    0.4017 N   0  0  0  0  0
    2.7365    1.5251   -3.6392 N   0  0  0  0  0
    2.6327   -1.6451   -2.3801 O   0  0  0  0  0
    3.9687   -0.3690   -1.0821 O   0  0  0  0  0
   -3.5955    1.7299    1.0547 O   0  0  0  0  0
   -2.9522    2.0077   -1.3554 O   0  0  0  0  0
   -2.7672    1.3314   -0.0772 S   0  0  0  0  0
  1  8  1  0  0  0
  2  4  1  0  0  0
  3 10  1  0  0  0
  5  9  1  0  0  0
  6 21  1  0  0  0
  7 11  1  0  0  0
  7 12  1  0  0  0
  9 22  1  0  0  0
 11 23  1  0  0  0
 12 24  1  0  0  0
 13 18  1  0  0  0
 14 19  1  0  0  0
 15 20  1  0  0  0
 16 20  1  0  0  0
 17  8  1  0  0  0
 17 20  1  0  0  0
 18 23  1  0  0  0
 19 23  1  0  0  0
 28 10  1  0  0  0
 28 22  1  0  0  0
  1  3  2  0  0  0
  2  8  2  0  0  0
  4 10  2  0  0  0
  5  7  2  0  0  0
  6  9  2  0  0  0
 11 21  2  0  0  0
 12 25  2  0  0  0
 28 26  2  0  0  0
 28 27  2  0  0  0
M  CHG  1  24  -1
M  END
> <rmsd>
0.513101518

$$$$
ZINC35397660


 28 29  0  0  0  0  0  0  0  0999 V2000
   -3.2690   -2.5864    0.4416 C   0  0  0  0  0
   -2.4300   -2.2484   -1.7986 C   0  0  0  0  0
   -3.2254   -1.2104    0.6657 C   0  0  0  0  0
   -2.3863   -0.8723   -1.5745 C   0  0  0  0  0
    1.0044    0.7943   -0.3286 C   0  0  0  0  0
   -0.0195    2.6932   -1.3295 C   0  0  0  0  0
    2.0451    0.9112   -1.2433 C   0  0  0  0  0
   -2.8713   -3.1055   -0.7905 C   0  0  0  0  0
   -0.0513    1.6983   -0.3658 C   0  0  0  0  0
   -2.7840   -0.3534   -0.3423 C   0  0  0  0  0
    1.9829    1.9412   -2.1679 C   0  0  0  0  0
    3.1623   -0.0478   -1.2019 C   0  0  0  0  0
    2.2901    2.2243   -5.4017 C   0  0  0  0  0
    3.9030    4.3300   -3.0584 C   0  0  0  0  0
   -1.2688   -5.1557    0.8271 C   0  0  0  0  0
   -1.7426   -6.8161   -0.9845 C   0  0  0  0  0
   -2.9163   -4.5946   -1.0326 C   0  0  0  0  0
    2.9701    1.3831   -4.3757 C   0  0  0  0  0
    4.1884    2.8903   -2.7969 C   0  0  0  0  0
   -1.6141   -5.3270   -0.6543 C   0  0  0  0  0
    0.9739    2.8386   -2.2347 N   0  0  0  0  0
   -1.1421    1.6033    0.5667 N   0  0  0  0  0
    3.0402    2.0668   -3.1037 N   0  0  0  0  0
    3.0780   -1.1263   -1.8998 O   0  0  0  0  0
    4.1849    0.2249   -0.4690 O   0  0  0  0  0
   -3.6850    1.6785    0.9939 O   0  0  0  0  0
   -2.8515    2.0542   -1.3436 O   0  0  0  0  0
   -2.7288    1.3691   -0.0626 S   0  0  0  0  0
  1  8  1  0  0  0
  2  4  1  0  0  0
  3 10  1  0  0  0
  5  9  1  0  0  0
  6 21  1  0  0  0
  7 11  1  0  0  0
  7 12  1  0  0  0
  9 22  1  0  0  0
 11 23  1  0  0  0
 12 24  1  0  0  0
 13 18  1  0  0  0
 14 19  1  0  0  0
 15 20  1  0  0  0
 16 20  1  0  0  0
 17  8  1  0  0  0
 17 20  1  0  0  0
 18 23  1  0  0  0
 19 23  1  0  0  0
 28 10  1  0  0  0
 28 22  1  0  0  0
  1  3  2  0  0  0
  2  8  2  0  0  0
  4 10  2  0  0  0
  5  7  2  0  0  0
  6  9  2  0  0  0
 11 21  2  0  0  0
 12 25  2  0  0  0
 28 26  2  0  0  0
 28 27  2  0  0  0
M  CHG  1  24  -1
M  END
> <rmsd>
0.695399582

$$$$
ZINC35397670


 28 29  0  0  0  0  0  0  0  0999 V2000
   -2.4315   -2.2491   -1.7978 C   0  0  0  0  0
   -3.2711   -2.5855    0.4425 C   0  0  0  0  0
   -2.3870   -0.8730   -1.5745 C   0  0  0  0  0
   -3.2264   -1.2094    0.6658 C   0  0  0  0  0
    1.0042    0.7942   -0.3277 C   0  0  0  0  0
   -0.0194    2.6935   -1.3284 C   0  0  0  0  0
    2.0450    0.9112   -1.2422 C   0  0  0  0  0
   -2.8736   -3.1054   -0.7894 C   0  0  0  0  0
   -0.0515    1.6983   -0.3649 C   0  0  0  0  0
   -2.7843   -0.3531   -0.3427 C   0  0  0  0  0
    1.9831    1.9416   -2.1665 C   0  0  0  0  0
    3.1622   -0.0479   -1.2007 C   0  0  0  0  0
    2.2911    2.2255   -5.4001 C   0  0  0  0  0
    3.9036    4.3305   -3.0559 C   0  0  0  0  0
   -1.5099   -5.1426   -1.3687 C   0  0  0  0  0
   -3.8687   -4.9246   -2.2201 C   0  0  0  0  0
   -3.4372   -5.4355    0.1745 C   0  0  0  0  0
    2.9708    1.3839   -4.3742 C   0  0  0  0  0
    4.1888    2.8906   -2.7948 C   0  0  0  0  0
   -2.9251   -4.6223   -1.0359 C   0  0  0  0  0
    0.9744    2.8390   -2.2333 N   0  0  0  0  0
   -1.1425    1.6032    0.5673 N   0  0  0  0  0
    3.0407    2.0672   -3.1019 N   0  0  0  0  0
    3.0780   -1.1262   -1.8989 O   0  0  0  0  0
    4.1846    0.2246   -0.4676 O   0  0  0  0  0
   -3.6855    1.6785    0.9939 O   0  0  0  0  0
   -2.8515    2.0547   -1.3432 O   0  0  0  0  0
   -2.7291    1.3693   -0.0624 S   0  0  0  0  0
  1  8  1  0  0  0
  2  4  1  0  0  0
  3 10  1  0  0  0
  5  9  1  0  0  0
  6 21  1  0  0  0
  7 11  1  0  0  0
  7 12  1  0  0  0
  9 22  1  0  0  0
 11 23  1  0  0  0
 12 24  1  0  0  0
 13 18  1  0  0  0
 14 19  1  0  0  0
 15 20  1  0  0  0
 16 20  1  0  0  0
 17 20  1  0  0  0
 18 23  1  0  0  0
 19 23  1  0  0  0
 20  8  1  0  0  0
 28 10  1  0  0  0
 28 22  1  0  0  0
  1  3  2  0  0  0
  2  8  2  0  0  0
  4 10  2  0  0  0
  5  7  2  0  0  0
  6  9  2  0  0  0
 11 21  2  0  0  0
 12 25  2  0  0  0
 28 26  2  0  0  0
 28 27  2  0  0  0
M  CHG  1  24  -1
M  END
> <rmsd>
0.69473201

$$$$
ZINC35397670


 28 29  0  0  0  0  0  0  0  0999 V2000
   -2.9162   -2.3208   -1.7596 C   0  0  0  0  0
   -3.5709   -2.5602    0.5537 C   0  0  0  0  0
   -2.7431   -0.9500   -1.5687 C   0  0  0  0  0
   -3.3977   -1.1894    0.7445 C   0  0  0  0  0
    0.8688    0.4553   -0.6667 C   0  0  0  0  0
   -0.0894    2.4178   -1.6086 C   0  0  0  0  0
    1.8274    0.4768   -1.6736 C   0  0  0  0  0
   -3.3302   -3.1260   -0.6985 C   0  0  0  0  0
   -0.1114    1.4407   -0.6265 C   0  0  0  0  0
   -2.9838   -0.3843   -0.3167 C   0  0  0  0  0
    1.7625    1.4969   -2.6089 C   0  0  0  0  0
    2.8646   -0.5683   -1.7140 C   0  0  0  0  0
    1.7945    1.7141   -5.8622 C   0  0  0  0  0
    3.7757    3.7124   -3.7156 C   0  0  0  0  0
   -2.1900   -5.2733   -1.3577 C   0  0  0  0  0
   -4.5923   -4.8775   -1.9969 C   0  0  0  0  0
   -3.9849   -5.3908    0.3587 C   0  0  0  0  0
    2.4968    0.8337   -4.8852 C   0  0  0  0  0
    3.9693    2.2577   -3.4526 C   0  0  0  0  0
   -3.5233   -4.6368   -0.9090 C   0  0  0  0  0
    0.8257    2.4715   -2.6023 N   0  0  0  0  0
   -1.1165    1.4453    0.4020 N   0  0  0  0  0
    2.7365    1.5254   -3.6383 N   0  0  0  0  0
    2.6322   -1.6452   -2.3801 O   0  0  0  0  0
    3.9682   -0.3695   -1.0817 O   0  0  0  0  0
   -3.5959    1.7300    1.0549 O   0  0  0  0  0
   -2.9523    2.0083   -1.3550 O   0  0  0  0  0
   -2.7675    1.3316   -0.0770 S   0  0  0  0  0
  1  8  1  0  0  0
  2  4  1  0  0  0
  3 10  1  0  0  0
  5  9  1  0  0  0
  6 21  1  0  0  0
  7 11  1  0  0  0
  7 12  1  0  0  0
  9 22  1  0  0  0
 11 23  1  0  0  0
 12 24  1  0  0  0
 13 18  1  0  0  0
 14 19  1  0  0  0
 15 20  1  0  0  0
 16 20  1  0  0  0
 17 20  1  0  0  0
 18 23  1  0  0  0
 19 23  1  0  0  0
 20  8  1  0  0  0
 28 10  1  0  0  0
 28 22  1  0  0  0
  1  3  2  0  0  0
  2  8  2  0  0  0
  4 10  2  0  0  0
  5  7  2  0  0  0
  6  9  2  0  0  0
 11 21  2  0  0  0
 12 25  2  0  0  0
 28 26  2  0  0  0
 28 27  2  0  0  0
M  CHG  1  24  -1
M  END
> <rmsd>
0.512509823

$$$$
ZINC35397383


 28 29  0  0  0  0  0  0  0  0999 V2000
   -2.9510   -2.2116   -1.8677 C   0  0  0  0  0
   -2.9046   -0.8382   -1.6282 C   0  0  0  0  0
    1.0034    0.7872   -0.3133 C   0  0  0  0  0
   -2.7566   -2.6318    0.5035 C   0  0  0  0  0
    0.0030    2.7130   -1.2866 C   0  0  0  0  0
    2.0529    0.9133   -1.2167 C   0  0  0  0  0
   -2.8770   -3.1084   -0.8018 C   0  0  0  0  0
   -2.7103   -1.2585    0.7432 C   0  0  0  0  0
   -0.0449    1.7002   -0.3424 C   0  0  0  0  0
   -2.7842   -0.3617   -0.3227 C   0  0  0  0  0
    2.0068    1.9613   -2.1219 C   0  0  0  0  0
    3.1623   -0.0551   -1.1839 C   0  0  0  0  0
   -2.9261   -4.5769   -1.0588 C   0  0  0  0  0
   -2.5809   -0.7809    2.1525 C   0  0  0  0  0
    4.2363    4.8195   -2.5934 C   0  0  0  0  0
    1.8813    0.6022   -6.3737 C   0  0  0  0  0
    5.0048    3.6067   -3.0988 C   0  0  0  0  0
    2.1516    0.6959   -4.8788 C   0  0  0  0  0
    4.4195    2.2900   -2.6028 C   0  0  0  0  0
    2.7877    2.0213   -4.4772 C   0  0  0  0  0
    1.0055    2.8677   -2.1803 N   0  0  0  0  0
   -1.1346    1.5970    0.5702 N   0  0  0  0  0
    3.0643    2.0950   -3.0382 N   0  0  0  0  0
    3.0757   -1.1195   -1.9030 O   0  0  0  0  0
    4.1805    0.1956   -0.4372 O   0  0  0  0  0
   -3.6899    1.6837    0.9897 O   0  0  0  0  0
   -2.8429    2.0366   -1.3464 O   0  0  0  0  0
   -2.7275    1.3870   -0.0550 S   0  0  0  0  0
  1  7  1  0  0  0
  2 10  1  0  0  0
  3  9  1  0  0  0
  4  8  1  0  0  0
  5 21  1  0  0  0
  6 11  1  0  0  0
  6 12  1  0  0  0
  9 22  1  0  0  0
 11 23  1  0  0  0
 12 24  1  0  0  0
 13  7  1  0  0  0
 14  8  1  0  0  0
 15 17  1  0  0  0
 16 18  1  0  0  0
 17 19  1  0  0  0
 18 20  1  0  0  0
 19 23  1  0  0  0
 20 23  1  0  0  0
 28 10  1  0  0  0
 28 22  1  0  0  0
  1  2  2  0  0  0
  3  6  2  0  0  0
  4  7  2  0  0  0
  5  9  2  0  0  0
  8 10  2  0  0  0
 11 21  2  0  0  0
 12 25  2  0  0  0
 28 26  2  0  0  0
 28 27  2  0  0  0
M  CHG  1  24  -1
M  END
> <rmsd>
0.692240179

$$$$
ZINC35397383


 28 29  0  0  0  0  0  0  0  0999 V2000
   -3.4345   -2.2397   -1.7869 C   0  0  0  0  0
   -3.2602   -0.8717   -1.5781 C   0  0  0  0  0
    0.8673    0.4567   -0.6603 C   0  0  0  0  0
   -3.0522   -2.6473    0.5636 C   0  0  0  0  0
   -0.0682    2.4440   -1.5724 C   0  0  0  0  0
    1.8343    0.4898   -1.6589 C   0  0  0  0  0
   -3.3306   -3.1275   -0.7160 C   0  0  0  0  0
   -2.8779   -1.2792    0.7725 C   0  0  0  0  0
   -0.1056    1.4487   -0.6092 C   0  0  0  0  0
   -2.9819   -0.3914   -0.2984 C   0  0  0  0  0
    1.7847    1.5280   -2.5752 C   0  0  0  0  0
    2.8639   -0.5623   -1.7109 C   0  0  0  0  0
   -3.5166   -4.5905   -0.9401 C   0  0  0  0  0
   -2.5808   -0.7975    2.1548 C   0  0  0  0  0
    4.1741    4.1968   -3.3034 C   0  0  0  0  0
    1.1575    0.1352   -6.7714 C   0  0  0  0  0
    4.7961    2.9218   -3.8551 C   0  0  0  0  0
    1.5729    0.2242   -5.3098 C   0  0  0  0  0
    4.1599    1.6608   -3.2829 C   0  0  0  0  0
    2.3441    1.5000   -4.9933 C   0  0  0  0  0
    0.8552    2.5095   -2.5576 N   0  0  0  0  0
   -1.1098    1.4417    0.4019 N   0  0  0  0  0
    2.7590    1.5679   -3.5875 N   0  0  0  0  0
    2.6286   -1.6246   -2.3990 O   0  0  0  0  0
    3.9638   -0.3839   -1.0661 O   0  0  0  0  0
   -3.6003    1.7334    1.0540 O   0  0  0  0  0
   -2.9509    1.9925   -1.3565 O   0  0  0  0  0
   -2.7656    1.3503   -0.0695 S   0  0  0  0  0
  1  7  1  0  0  0
  2 10  1  0  0  0
  3  9  1  0  0  0
  4  8  1  0  0  0
  5 21  1  0  0  0
  6 11  1  0  0  0
  6 12  1  0  0  0
  9 22  1  0  0  0
 11 23  1  0  0  0
 12 24  1  0  0  0
 13  7  1  0  0  0
 14  8  1  0  0  0
 15 17  1  0  0  0
 16 18  1  0  0  0
 17 19  1  0  0  0
 18 20  1  0  0  0
 19 23  1  0  0  0
 20 23  1  0  0  0
 28 10  1  0  0  0
 28 22  1  0  0  0
  1  2  2  0  0  0
  3  6  2  0  0  0
  4  7  2  0  0  0
  5  9  2  0  0  0
  8 10  2  0  0  0
 11 21  2  0  0  0
 12 25  2  0  0  0
 28 26  2  0  0  0
 28 27  2  0  0  0
M  CHG  1  24  -1
M  END
> <rmsd>
0.512229919

$$$$
ZINC03018659


 28 29  0  0  0  0  0  0  0  0999 V2000
    1.6750    2.5921   -1.4268 C   0  0  0  0  0
    0.5289    2.6318   -0.6329 C   0  0  0  0  0
    2.2983    1.3725   -1.6914 C   0  0  0  0  0
   -2.9929   -2.5999    0.7298 C   0  0  0  0  0
   -3.1358   -2.3276   -1.6665 C   0  0  0  0  0
    0.6294    0.2324   -0.3679 C   0  0  0  0  0
   -3.1289   -3.1541   -0.5428 C   0  0  0  0  0
   -2.8638   -1.2190    0.8791 C   0  0  0  0  0
   -3.0067   -0.9467   -1.5173 C   0  0  0  0  0
    0.0060    1.4519   -0.1034 C   0  0  0  0  0
    1.7756    0.1928   -1.1619 C   0  0  0  0  0
   -2.8707   -0.3924   -0.2445 C   0  0  0  0  0
   -2.1066   -5.2457   -1.5091 C   0  0  0  0  0
   -4.6123   -5.0325   -1.3338 C   0  0  0  0  0
   -1.4444   -1.1621    2.9612 C   0  0  0  0  0
   -3.9499   -0.9466    3.1374 C   0  0  0  0  0
   -4.3476   -0.1901   -3.5130 C   0  0  0  0  0
   -1.8419   -0.4054   -3.6863 C   0  0  0  0  0
   -3.2659   -4.6308   -0.7025 C   0  0  0  0  0
   -2.7190   -0.6618    2.2581 C   0  0  0  0  0
   -3.0180   -0.0928   -2.7436 C   0  0  0  0  0
   -1.1755    1.4932    0.7154 N   0  0  0  0  0
    2.4098   -1.0483   -1.4325 N   0  0  0  0  0
    3.4392   -1.0615   -2.1500 O   0  0  0  0  0
    1.9241   -2.0984   -0.9466 O   0  0  0  0  0
   -3.7340    1.7804    0.8779 O   0  0  0  0  0
   -2.6511    1.9453   -1.3804 O   0  0  0  0  0
   -2.7065    1.3442   -0.0565 S   0  0  0  0  0
  1  3  1  0  0  0
  2 10  1  0  0  0
  4  7  1  0  0  0
  5  9  1  0  0  0
  6 11  1  0  0  0
  8 12  1  0  0  0
 10 22  1  0  0  0
 11 23  1  0  0  0
 13 19  1  0  0  0
 14 19  1  0  0  0
 15 20  1  0  0  0
 16 20  1  0  0  0
 17 21  1  0  0  0
 18 21  1  0  0  0
 19  7  1  0  0  0
 20  8  1  0  0  0
 21  9  1  0  0  0
 23 24  1  0  0  0
 28 12  1  0  0  0
 28 22  1  0  0  0
  1  2  2  0  0  0
  3 11  2  0  0  0
  4  8  2  0  0  0
  5  7  2  0  0  0
  6 10  2  0  0  0
  9 12  2  0  0  0
 23 25  2  0  0  0
 28 26  2  0  0  0
 28 27  2  0  0  0
M  CHG  2  23   1  24  -1
M  END
> <rmsd>
0.559179842

$$$$
ZINC05234549


 24 26  0  0  0  0  0  0  0  0999 V2000
   -3.7129   -2.3077    1.0273 C   0  0  0  0  0
   -3.8651   -3.3234    0.0881 C   0  0  0  0  0
   -3.3740   -1.0190    0.6139 C   0  0  0  0  0
   -3.6792   -3.0542   -1.2682 C   0  0  0  0  0
    1.6325    1.7822   -1.7083 C   0  0  0  0  0
    1.6941   -0.4150   -0.7055 C   0  0  0  0  0
    0.5137    2.1019   -0.9390 C   0  0  0  0  0
    0.5754   -0.0953    0.0638 C   0  0  0  0  0
   -2.6556    0.8303   -2.5374 C   0  0  0  0  0
   -2.8079   -0.1853   -3.4766 C   0  0  0  0  0
   -3.1830   -0.7301   -0.7472 C   0  0  0  0  0
   -3.3378   -1.7630   -1.7023 C   0  0  0  0  0
    2.2226    0.5237   -1.5916 C   0  0  0  0  0
   -0.0149    1.1632   -0.0530 C   0  0  0  0  0
   -2.8417    0.5612   -1.1812 C   0  0  0  0  0
   -3.1467   -1.4740   -3.0632 C   0  0  0  0  0
    3.4037    0.1865   -2.4027 C   0  0  0  0  0
   -1.1693    1.4922    0.7390 N   0  0  0  0  0
    3.9296   -0.9822   -2.2756 O   0  0  0  0  0
    3.8725    1.0713   -3.2125 O   0  0  0  0  0
   -3.7178    1.8651    0.8824 O   0  0  0  0  0
   -2.4207    3.1157   -0.8648 O   0  0  0  0  0
   -2.6250    1.9109   -0.0767 S   0  0  0  0  0
   -3.3246   -2.7657   -4.4572 Br  0  0  0  0  0
  1  2  1  0  0  0
  3 11  1  0  0  0
  4 12  1  0  0  0
  5 13  1  0  0  0
  6  8  1  0  0  0
  7 14  1  0  0  0
  9 15  1  0  0  0
 10 16  1  0  0  0
 11 12  1  0  0  0
 13 17  1  0  0  0
 14 18  1  0  0  0
 16 24  1  0  0  0
 17 19  1  0  0  0
 23 15  1  0  0  0
 23 18  1  0  0  0
  1  3  2  0  0  0
  2  4  2  0  0  0
  5  7  2  0  0  0
  6 13  2  0  0  0
  8 14  2  0  0  0
  9 10  2  0  0  0
 11 15  2  0  0  0
 12 16  2  0  0  0
 17 20  2  0  0  0
 23 21  2  0  0  0
 23 22  2  0  0  0
M  CHG  1  19  -1
M  END
> <rmsd>
0.467386395

$$$$
ZINC06623312


 25 26  0  0  0  0  0  0  0  0999 V2000
    2.0417    1.2324   -2.1551 C   0  0  0  0  0
    1.1925    2.3389   -2.1684 C   0  0  0  0  0
   -3.4165   -3.1317   -0.5295 C   0  0  0  0  0
    0.7561    0.2675   -0.3514 C   0  0  0  0  0
   -2.8896   -2.3920   -1.5882 C   0  0  0  0  0
   -3.5537   -1.1229    0.8058 C   0  0  0  0  0
   -0.0931    1.3740   -0.3647 C   0  0  0  0  0
    1.8234    0.1966   -1.2467 C   0  0  0  0  0
    0.1251    2.4097   -1.2732 C   0  0  0  0  0
   -3.0269   -0.3831   -0.2530 C   0  0  0  0  0
   -3.7486   -2.4971    0.6675 C   0  0  0  0  0
   -2.6948   -1.0178   -1.4500 C   0  0  0  0  0
   -2.5482   -3.1171   -2.8510 C   0  0  0  0  0
   -3.9121   -0.4420    2.0915 C   0  0  0  0  0
   -0.3359    4.6004   -0.4705 C   0  0  0  0  0
   -1.1883    1.4336    0.5654 N   0  0  0  0  0
    2.6875   -0.9301   -1.2336 N   0  0  0  0  0
    3.6414   -0.9742   -2.0476 O   0  0  0  0  0
    2.4740   -1.8507   -0.4081 O   0  0  0  0  0
   -3.7086    1.7931    0.9819 O   0  0  0  0  0
   -2.8462    1.9676   -1.3686 O   0  0  0  0  0
   -0.6938    3.4988   -1.3022 O   0  0  0  0  0
   -2.7904    1.3485   -0.0545 S   0  0  0  0  0
   -4.3969   -3.4513    1.9527 Cl  0  0  0  0  0
   -2.0393   -0.1184   -2.7801 Cl  0  0  0  0  0
  1  8  1  0  0  0
  2  9  1  0  0  0
  3  5  1  0  0  0
  4  7  1  0  0  0
  6 11  1  0  0  0
  7 16  1  0  0  0
  8 17  1  0  0  0
  9 22  1  0  0  0
 10 12  1  0  0  0
 11 24  1  0  0  0
 12 25  1  0  0  0
 13  5  1  0  0  0
 14  6  1  0  0  0
 15 22  1  0  0  0
 17 18  1  0  0  0
 23 10  1  0  0  0
 23 16  1  0  0  0
  1  2  2  0  0  0
  3 11  2  0  0  0
  4  8  2  0  0  0
  5 12  2  0  0  0
  6 10  2  0  0  0
  7  9  2  0  0  0
 17 19  2  0  0  0
 23 20  2  0  0  0
 23 21  2  0  0  0
M  CHG  2  17   1  18  -1
M  END
> <rmsd>
0.420283616

$$$$
ZINC16925182


 28 30  0  0  0  0  0  0  0  0999 V2000
   -3.3053   -1.0756    0.4574 C   0  0  0  0  0
   -4.1995   -1.4378   -1.7575 C   0  0  0  0  0
    2.2740   -1.1738    0.1949 C   0  0  0  0  0
    1.4228   -1.1347    1.2991 C   0  0  0  0  0
   -3.3948   -2.4431    0.7173 C   0  0  0  0  0
   -4.2891   -2.8054   -1.4977 C   0  0  0  0  0
    1.1550    0.7544   -0.7361 C   0  0  0  0  0
   -3.7077   -0.5730   -0.7800 C   0  0  0  0  0
    0.3038    0.7936    0.3681 C   0  0  0  0  0
    2.1402   -0.2292   -0.8227 C   0  0  0  0  0
    0.4376   -0.1510    1.3858 C   0  0  0  0  0
   -3.8867   -3.3080   -0.2603 C   0  0  0  0  0
   -3.7367    1.7883   -0.0279 C   0  0  0  0  0
   -3.4142    1.3231   -2.3353 C   0  0  0  0  0
   -0.9502    2.8053   -0.4820 C   0  0  0  0  0
   -3.4533    3.1864   -0.5255 C   0  0  0  0  0
   -2.1079    3.6742   -0.0136 C   0  0  0  0  0
   -3.6145    0.8379   -1.0484 N   0  0  0  0  0
   -0.6904    1.7981    0.4430 N   0  0  0  0  0
    3.0079   -0.2689   -1.9462 N   0  0  0  0  0
    3.8877   -1.1617   -2.0036 O   0  0  0  0  0
   -4.0544    1.5968    1.1438 O   0  0  0  0  0
   -3.1887    0.7156   -3.3713 O   0  0  0  0  0
   -0.3663    3.0145   -1.5402 O   0  0  0  0  0
    2.8707    0.5896   -2.8509 O   0  0  0  0  0
   -0.3840   -0.1302    2.4731 O   0  0  0  0  0
   -3.9722   -4.6211   -0.0112 F   0  0  0  0  0
   -3.4529    3.0775   -2.3242 S   0  0  0  0  0
  1  5  1  0  0  0
  2  8  1  0  0  0
  3 10  1  0  0  0
  4 11  1  0  0  0
  6 12  1  0  0  0
  7  9  1  0  0  0
  8 18  1  0  0  0
  9 19  1  0  0  0
 10 20  1  0  0  0
 11 26  1  0  0  0
 12 27  1  0  0  0
 13 18  1  0  0  0
 14 18  1  0  0  0
 14 28  1  0  0  0
 15 19  1  0  0  0
 16 13  1  0  0  0
 16 17  1  0  0  0
 16 28  1  0  0  0
 17 15  1  0  0  0
 20 21  1  0  0  0
  1  8  2  0  0  0
  2  6  2  0  0  0
  3  4  2  0  0  0
  5 12  2  0  0  0
  7 10  2  0  0  0
  9 11  2  0  0  0
 13 22  2  0  0  0
 14 23  2  0  0  0
 15 24  2  0  0  0
 20 25  2  0  0  0
M  CHG  2  20   1  21  -1
M  END
> <rmsd>
0.400606722

$$$$
ZINC07890953


 30 32  0  0  0  0  0  0  0  0999 V2000
   -2.2234    4.9667   -1.0705 C   0  0  0  0  0
   -0.8339    4.8956   -0.9722 C   0  0  0  0  0
    4.1575   -4.1473    0.7901 C   0  0  0  0  0
    3.2342   -3.8504    1.7925 C   0  0  0  0  0
   -5.4076   -2.1837    0.6476 C   0  0  0  0  0
   -3.0065    3.8781   -0.6866 C   0  0  0  0  0
   -5.0379   -3.2651   -0.1521 C   0  0  0  0  0
   -0.2273    3.7357   -0.4900 C   0  0  0  0  0
   -4.7395   -0.9653    0.5254 C   0  0  0  0  0
    4.5893   -3.1456   -0.0795 C   0  0  0  0  0
    2.7424   -2.5520    1.9253 C   0  0  0  0  0
   -3.3320   -1.9097   -1.1963 C   0  0  0  0  0
   -2.3999    2.7182   -0.2043 C   0  0  0  0  0
   -4.0001   -3.1281   -1.0740 C   0  0  0  0  0
   -3.7017   -0.8283   -0.3966 C   0  0  0  0  0
   -1.0103    2.6470   -0.1060 C   0  0  0  0  0
    4.0974   -1.8471    0.0535 C   0  0  0  0  0
    3.1740   -1.5503    1.0558 C   0  0  0  0  0
   -3.2470    1.5990    0.1885 C   0  0  0  0  0
    0.9906    1.2627    0.5305 C   0  0  0  0  0
   -3.6049   -4.2841   -1.9289 C   0  0  0  0  0
    1.2758   -0.1178    1.0807 C   0  0  0  0  0
   -3.0225    0.4100   -0.5199 N   0  0  0  0  0
   -0.3807    1.4947    0.3726 N   0  0  0  0  0
    4.5488   -0.8383   -0.8414 N   0  0  0  0  0
    3.9187   -0.6489   -1.9087 O   0  0  0  0  0
   -4.1171    1.7194    1.0596 O   0  0  0  0  0
    1.9109    2.0321    0.2711 O   0  0  0  0  0
    5.5632   -0.1676   -0.5366 O   0  0  0  0  0
    2.6736   -0.2789    1.2060 O   0  0  0  0  0
  1  2  1  0  0  0
  3  4  1  0  0  0
  5  9  1  0  0  0
  6 13  1  0  0  0
  7 14  1  0  0  0
  8 16  1  0  0  0
 10 17  1  0  0  0
 11 18  1  0  0  0
 12 15  1  0  0  0
 13 19  1  0  0  0
 15 23  1  0  0  0
 16 24  1  0  0  0
 17 25  1  0  0  0
 18 30  1  0  0  0
 19 23  1  0  0  0
 20 24  1  0  0  0
 21 14  1  0  0  0
 22 20  1  0  0  0
 22 30  1  0  0  0
 25 26  1  0  0  0
  1  6  2  0  0  0
  2  8  2  0  0  0
  3 10  2  0  0  0
  4 11  2  0  0  0
  5  7  2  0  0  0
  9 15  2  0  0  0
 12 14  2  0  0  0
 13 16  2  0  0  0
 17 18  2  0  0  0
 19 27  2  0  0  0
 20 28  2  0  0  0
 25 29  2  0  0  0
M  CHG  2  25   1  26  -1
M  END
> <rmsd>
0.575359106

$$$$
ZINC07890953


 30 32  0  0  0  0  0  0  0  0999 V2000
   -2.2231    4.9665   -1.0708 C   0  0  0  0  0
   -0.8337    4.8954   -0.9725 C   0  0  0  0  0
    4.1581   -4.1471    0.7909 C   0  0  0  0  0
    3.2348   -3.8501    1.7933 C   0  0  0  0  0
   -3.9999   -3.1277   -1.0752 C   0  0  0  0  0
   -3.0062    3.8779   -0.6866 C   0  0  0  0  0
   -5.0380   -3.2651   -0.1539 C   0  0  0  0  0
   -0.2270    3.7357   -0.4901 C   0  0  0  0  0
   -3.3314   -1.9093   -1.1961 C   0  0  0  0  0
    4.5898   -3.1455   -0.0788 C   0  0  0  0  0
    2.7429   -2.5517    1.9259 C   0  0  0  0  0
   -4.7395   -0.9659    0.5256 C   0  0  0  0  0
   -2.3996    2.7181   -0.2042 C   0  0  0  0  0
   -5.4079   -2.1842    0.6465 C   0  0  0  0  0
   -3.7014   -0.8285   -0.3958 C   0  0  0  0  0
   -1.0099    2.6470   -0.1060 C   0  0  0  0  0
    4.0979   -1.8471    0.0539 C   0  0  0  0  0
    3.1745   -1.5500    1.0562 C   0  0  0  0  0
   -3.2466    1.5989    0.1888 C   0  0  0  0  0
    0.9910    1.2628    0.5307 C   0  0  0  0  0
   -6.5178   -2.3313    1.6314 C   0  0  0  0  0
    1.2763   -0.1176    1.0810 C   0  0  0  0  0
   -3.0222    0.4099   -0.5194 N   0  0  0  0  0
   -0.3803    1.4947    0.3728 N   0  0  0  0  0
    4.5492   -0.8384   -0.8411 N   0  0  0  0  0
    3.9190   -0.6491   -1.9084 O   0  0  0  0  0
   -4.1167    1.7195    1.0600 O   0  0  0  0  0
    1.9113    2.0322    0.2710 O   0  0  0  0  0
    5.5636   -0.1675   -0.5365 O   0  0  0  0  0
    2.6741   -0.2787    1.2063 O   0  0  0  0  0
  1  2  1  0  0  0
  3  4  1  0  0  0
  5  9  1  0  0  0
  6 13  1  0  0  0
  7 14  1  0  0  0
  8 16  1  0  0  0
 10 17  1  0  0  0
 11 18  1  0  0  0
 12 15  1  0  0  0
 13 19  1  0  0  0
 15 23  1  0  0  0
 16 24  1  0  0  0
 17 25  1  0  0  0
 18 30  1  0  0  0
 19 23  1  0  0  0
 20 24  1  0  0  0
 21 14  1  0  0  0
 22 20  1  0  0  0
 22 30  1  0  0  0
 25 26  1  0  0  0
  1  6  2  0  0  0
  2  8  2  0  0  0
  3 10  2  0  0  0
  4 11  2  0  0  0
  5  7  2  0  0  0
  9 15  2  0  0  0
 12 14  2  0  0  0
 13 16  2  0  0  0
 17 18  2  0  0  0
 19 27  2  0  0  0
 20 28  2  0  0  0
 25 29  2  0  0  0
M  CHG  2  25   1  26  -1
M  END
> <rmsd>
0.575857162

$$$$
ZINC33254066


 28 30  0  0  0  0  0  0  0  0999 V2000
    1.9428    1.5939   -2.4784 C   0  0  0  0  0
    1.0435    2.6560   -2.3843 C   0  0  0  0  0
   -2.7523   -2.2964   -1.7935 C   0  0  0  0  0
   -3.4450   -2.5780    0.5039 C   0  0  0  0  0
   -2.6248   -0.9229   -1.5868 C   0  0  0  0  0
   -3.3175   -1.2044    0.7107 C   0  0  0  0  0
    0.8212    0.4824   -0.6499 C   0  0  0  0  0
    1.8315    0.5071   -1.6112 C   0  0  0  0  0
    0.0331    2.6314   -1.4231 C   0  0  0  0  0
   -0.0781    1.5445   -0.5558 C   0  0  0  0  0
   -3.1624   -3.1240   -0.7481 C   0  0  0  0  0
   -2.9074   -0.3768   -0.3347 C   0  0  0  0  0
    2.7805   -0.6136   -1.7110 C   0  0  0  0  0
   -1.1612    4.4464   -2.5783 C   0  0  0  0  0
   -0.9555    4.4882   -0.1081 C   0  0  0  0  0
   -2.4758    5.2011   -2.4157 C   0  0  0  0  0
   -2.2809    5.2413   -0.0774 C   0  0  0  0  0
   -4.4092   -6.1914   -2.1708 C   0  0  0  0  0
   -3.6359   -4.8935   -2.2649 C   0  0  0  0  0
   -0.8581    3.7065   -1.3455 N   0  0  0  0  0
   -1.1061    1.4970    0.4381 N   0  0  0  0  0
    2.6565   -1.6050   -0.8983 O   0  0  0  0  0
    3.7040   -0.5659   -2.6075 O   0  0  0  0  0
   -3.6125    1.7064    1.0395 O   0  0  0  0  0
   -2.9217    2.0246   -1.3524 O   0  0  0  0  0
   -2.4342    6.0318   -1.2556 O   0  0  0  0  0
   -3.2865   -4.4642   -0.9497 O   0  0  0  0  0
   -2.7448    1.3660   -0.0725 S   0  0  0  0  0
  1  8  1  0  0  0
  2  9  1  0  0  0
  3 11  1  0  0  0
  4  6  1  0  0  0
  5 12  1  0  0  0
  7 10  1  0  0  0
  8 13  1  0  0  0
  9 20  1  0  0  0
 10 21  1  0  0  0
 11 27  1  0  0  0
 13 22  1  0  0  0
 14 16  1  0  0  0
 14 20  1  0  0  0
 15 17  1  0  0  0
 15 20  1  0  0  0
 16 26  1  0  0  0
 17 26  1  0  0  0
 18 19  1  0  0  0
 19 27  1  0  0  0
 28 12  1  0  0  0
 28 21  1  0  0  0
  1  2  2  0  0  0
  3  5  2  0  0  0
  4 11  2  0  0  0
  6 12  2  0  0  0
  7  8  2  0  0  0
  9 10  2  0  0  0
 13 23  2  0  0  0
 28 24  2  0  0  0
 28 25  2  0  0  0
M  CHG  1  22  -1
M  END
> <rmsd>
0.589094698

$$$$
ZINC32962166


 28 30  0  0  0  0  0  0  0  0999 V2000
    0.8690    2.5244   -2.5702 C   0  0  0  0  0
   -0.1069    2.5011   -1.5740 C   0  0  0  0  0
   -3.5403   -2.5658    0.5399 C   0  0  0  0  0
   -2.9058   -2.3073   -1.7770 C   0  0  0  0  0
   -3.3764   -1.1949    0.7377 C   0  0  0  0  0
   -2.7421   -0.9363   -1.5792 C   0  0  0  0  0
    0.8583    0.4765   -0.6759 C   0  0  0  0  0
    1.8342    0.4997   -1.6723 C   0  0  0  0  0
    1.8395    1.5237   -2.6195 C   0  0  0  0  0
   -0.1123    1.4771   -0.6267 C   0  0  0  0  0
   -3.3049   -3.1221   -0.7175 C   0  0  0  0  0
   -2.9773   -0.3801   -0.3218 C   0  0  0  0  0
    2.8489   -0.5704   -1.7016 C   0  0  0  0  0
    2.5000    3.9956   -5.7639 C   0  0  0  0  0
    3.8635    4.2172   -5.1059 C   0  0  0  0  0
    2.3895    2.7160   -6.5957 C   0  0  0  0  0
    3.9571    3.7766   -3.6453 C   0  0  0  0  0
    1.7427    1.5312   -5.8783 C   0  0  0  0  0
    4.0829    2.2685   -3.4419 C   0  0  0  0  0
    2.6515    0.8186   -4.8793 C   0  0  0  0  0
    2.8093    1.5651   -3.6267 N   0  0  0  0  0
   -1.1115    1.4536    0.3927 N   0  0  0  0  0
    2.6041   -1.6337   -2.3831 O   0  0  0  0  0
    3.9418   -0.4020   -1.0446 O   0  0  0  0  0
   -3.5972    1.7230    1.0634 O   0  0  0  0  0
   -2.9651    2.0179   -1.3475 O   0  0  0  0  0
   -3.4609   -4.4389   -0.9072 F   0  0  0  0  0
   -2.7681    1.3593   -0.0706 S   0  0  0  0  0
  1  9  1  0  0  0
  2 10  1  0  0  0
  3  5  1  0  0  0
  4 11  1  0  0  0
  6 12  1  0  0  0
  7  8  1  0  0  0
  8 13  1  0  0  0
  9 21  1  0  0  0
 10 22  1  0  0  0
 11 27  1  0  0  0
 13 23  1  0  0  0
 14 15  1  0  0  0
 14 16  1  0  0  0
 15 17  1  0  0  0
 16 18  1  0  0  0
 17 19  1  0  0  0
 18 20  1  0  0  0
 19 21  1  0  0  0
 20 21  1  0  0  0
 28 12  1  0  0  0
 28 22  1  0  0  0
  1  2  2  0  0  0
  3 11  2  0  0  0
  4  6  2  0  0  0
  5 12  2  0  0  0
  7 10  2  0  0  0
  8  9  2  0  0  0
 13 24  2  0  0  0
 28 25  2  0  0  0
 28 26  2  0  0  0
M  CHG  1  23  -1
M  END
> <rmsd>
0.5261361

$$$$
ZINC32962166


 28 30  0  0  0  0  0  0  0  0999 V2000
    1.0213    2.8840   -2.1893 C   0  0  0  0  0
   -0.0382    2.7669   -1.2897 C   0  0  0  0  0
   -3.2447   -2.5883    0.4337 C   0  0  0  0  0
   -2.4198   -2.2384   -1.8100 C   0  0  0  0  0
   -3.2081   -1.2127    0.6616 C   0  0  0  0  0
   -2.3833   -0.8628   -1.5821 C   0  0  0  0  0
    0.9953    0.8064   -0.3277 C   0  0  0  0  0
    2.0548    0.9234   -1.2274 C   0  0  0  0  0
    2.0678    1.9622   -2.1583 C   0  0  0  0  0
   -0.0513    1.7281   -0.3589 C   0  0  0  0  0
   -2.8505   -3.1012   -0.8022 C   0  0  0  0  0
   -2.7774   -0.3499   -0.3463 C   0  0  0  0  0
    3.1487   -0.0645   -1.1732 C   0  0  0  0  0
    2.8217    4.5359   -5.1983 C   0  0  0  0  0
    4.0965    4.8497   -4.4123 C   0  0  0  0  0
    2.8899    3.2674   -6.0512 C   0  0  0  0  0
    4.0881    4.3905   -2.9544 C   0  0  0  0  0
    2.2742    2.0230   -5.4114 C   0  0  0  0  0
    4.3125    2.8930   -2.7572 C   0  0  0  0  0
    3.1393    1.3642   -4.3394 C   0  0  0  0  0
    3.1208    2.0970   -3.0692 N   0  0  0  0  0
   -1.1360    1.6086    0.5616 N   0  0  0  0  0
    3.0527   -1.1306   -1.8867 O   0  0  0  0  0
    4.1592    0.1753   -0.4143 O   0  0  0  0  0
   -3.6867    1.6729    0.9981 O   0  0  0  0  0
   -2.8582    2.0606   -1.3390 O   0  0  0  0  0
   -2.8842   -4.4223   -1.0206 F   0  0  0  0  0
   -2.7298    1.3955   -0.0567 S   0  0  0  0  0
  1  9  1  0  0  0
  2 10  1  0  0  0
  3  5  1  0  0  0
  4 11  1  0  0  0
  6 12  1  0  0  0
  7  8  1  0  0  0
  8 13  1  0  0  0
  9 21  1  0  0  0
 10 22  1  0  0  0
 11 27  1  0  0  0
 13 23  1  0  0  0
 14 15  1  0  0  0
 14 16  1  0  0  0
 15 17  1  0  0  0
 16 18  1  0  0  0
 17 19  1  0  0  0
 18 20  1  0  0  0
 19 21  1  0  0  0
 20 21  1  0  0  0
 28 12  1  0  0  0
 28 22  1  0  0  0
  1  2  2  0  0  0
  3 11  2  0  0  0
  4  6  2  0  0  0
  5 12  2  0  0  0
  7 10  2  0  0  0
  8  9  2  0  0  0
 13 24  2  0  0  0
 28 25  2  0  0  0
 28 26  2  0  0  0
M  CHG  1  23  -1
M  END
> <rmsd>
0.707308054

$$$$
ZINC32962187


 28 30  0  0  0  0  0  0  0  0999 V2000
   -3.5400   -2.5659    0.5399 C   0  0  0  0  0
    0.8697    2.5243   -2.5702 C   0  0  0  0  0
   -0.1061    2.5010   -1.5739 C   0  0  0  0  0
   -3.3054   -3.1221   -0.7175 C   0  0  0  0  0
   -3.3757   -1.1949    0.7378 C   0  0  0  0  0
    0.8590    0.4764   -0.6758 C   0  0  0  0  0
   -2.7419   -0.9364   -1.5792 C   0  0  0  0  0
    1.8349    0.4996   -1.6722 C   0  0  0  0  0
    1.8402    1.5236   -2.6194 C   0  0  0  0  0
   -0.1116    1.4771   -0.6267 C   0  0  0  0  0
   -2.9063   -2.3074   -1.7770 C   0  0  0  0  0
   -2.9766   -0.3802   -0.3218 C   0  0  0  0  0
    2.8496   -0.5705   -1.7016 C   0  0  0  0  0
    2.5007    3.9955   -5.7639 C   0  0  0  0  0
    3.8642    4.2171   -5.1059 C   0  0  0  0  0
    2.3903    2.7159   -6.5956 C   0  0  0  0  0
    3.9579    3.7766   -3.6452 C   0  0  0  0  0
    1.7434    1.5311   -5.8782 C   0  0  0  0  0
    4.0837    2.2684   -3.4418 C   0  0  0  0  0
    2.6522    0.8186   -4.8793 C   0  0  0  0  0
    2.8100    1.5650   -3.6267 N   0  0  0  0  0
   -1.1108    1.4535    0.3928 N   0  0  0  0  0
    2.6049   -1.6338   -2.3830 O   0  0  0  0  0
    3.9425   -0.4021   -1.0445 O   0  0  0  0  0
   -3.5965    1.7229    1.0634 O   0  0  0  0  0
   -2.9644    2.0179   -1.3475 O   0  0  0  0  0
   -2.6803   -2.8418   -2.9844 F   0  0  0  0  0
   -2.7674    1.3592   -0.0705 S   0  0  0  0  0
  1  4  1  0  0  0
  2  9  1  0  0  0
  3 10  1  0  0  0
  5 12  1  0  0  0
  6  8  1  0  0  0
  7 11  1  0  0  0
  8 13  1  0  0  0
  9 21  1  0  0  0
 10 22  1  0  0  0
 11 27  1  0  0  0
 13 23  1  0  0  0
 14 15  1  0  0  0
 14 16  1  0  0  0
 15 17  1  0  0  0
 16 18  1  0  0  0
 17 19  1  0  0  0
 18 20  1  0  0  0
 19 21  1  0  0  0
 20 21  1  0  0  0
 28 12  1  0  0  0
 28 22  1  0  0  0
  1  5  2  0  0  0
  2  3  2  0  0  0
  4 11  2  0  0  0
  6 10  2  0  0  0
  7 12  2  0  0  0
  8  9  2  0  0  0
 13 24  2  0  0  0
 28 25  2  0  0  0
 28 26  2  0  0  0
M  CHG  1  23  -1
M  END
> <rmsd>
0.526136041

$$$$
ZINC32962187


 28 30  0  0  0  0  0  0  0  0999 V2000
   -3.2445   -2.5883    0.4338 C   0  0  0  0  0
    1.0220    2.8839   -2.1892 C   0  0  0  0  0
   -0.0374    2.7669   -1.2896 C   0  0  0  0  0
   -2.8510   -3.1012   -0.8022 C   0  0  0  0  0
   -3.2074   -1.2127    0.6618 C   0  0  0  0  0
    0.9960    0.8063   -0.3276 C   0  0  0  0  0
   -2.3831   -0.8628   -1.5821 C   0  0  0  0  0
    2.0555    0.9233   -1.2273 C   0  0  0  0  0
    2.0685    1.9622   -2.1582 C   0  0  0  0  0
   -0.0505    1.7281   -0.3588 C   0  0  0  0  0
   -2.4202   -2.2385   -1.8101 C   0  0  0  0  0
   -2.7767   -0.3499   -0.3461 C   0  0  0  0  0
    3.1494   -0.0645   -1.1731 C   0  0  0  0  0
    2.8224    4.5359   -5.1982 C   0  0  0  0  0
    4.0972    4.8496   -4.4122 C   0  0  0  0  0
    2.8907    3.2673   -6.0511 C   0  0  0  0  0
    4.0889    4.3905   -2.9543 C   0  0  0  0  0
    2.2750    2.0230   -5.4113 C   0  0  0  0  0
    4.3133    2.8930   -2.7571 C   0  0  0  0  0
    3.1401    1.3641   -4.3393 C   0  0  0  0  0
    3.1215    2.0970   -3.0691 N   0  0  0  0  0
   -1.1353    1.6086    0.5617 N   0  0  0  0  0
    3.0534   -1.1307   -1.8866 O   0  0  0  0  0
    4.1599    0.1753   -0.4142 O   0  0  0  0  0
   -3.6860    1.6729    0.9983 O   0  0  0  0  0
   -2.8575    2.0606   -1.3389 O   0  0  0  0  0
   -2.0416   -2.7313   -2.9967 F   0  0  0  0  0
   -2.7290    1.3954   -0.0566 S   0  0  0  0  0
  1  4  1  0  0  0
  2  9  1  0  0  0
  3 10  1  0  0  0
  5 12  1  0  0  0
  6  8  1  0  0  0
  7 11  1  0  0  0
  8 13  1  0  0  0
  9 21  1  0  0  0
 10 22  1  0  0  0
 11 27  1  0  0  0
 13 23  1  0  0  0
 14 15  1  0  0  0
 14 16  1  0  0  0
 15 17  1  0  0  0
 16 18  1  0  0  0
 17 19  1  0  0  0
 18 20  1  0  0  0
 19 21  1  0  0  0
 20 21  1  0  0  0
 28 12  1  0  0  0
 28 22  1  0  0  0
  1  5  2  0  0  0
  2  3  2  0  0  0
  4 11  2  0  0  0
  6 10  2  0  0  0
  7 12  2  0  0  0
  8  9  2  0  0  0
 13 24  2  0  0  0
 28 25  2  0  0  0
 28 26  2  0  0  0
M  CHG  1  23  -1
M  END
> <rmsd>
0.707307935

$$$$
ZINC32962187


 28 30  0  0  0  0  0  0  0  0999 V2000
   -2.4215   -2.2387   -1.8100 C   0  0  0  0  0
    1.0215    2.8841   -2.1893 C   0  0  0  0  0
   -0.0380    2.7670   -1.2897 C   0  0  0  0  0
   -2.8525   -3.1012   -0.8021 C   0  0  0  0  0
   -2.3836   -0.8631   -1.5818 C   0  0  0  0  0
    0.9957    0.8068   -0.3274 C   0  0  0  0  0
   -3.2078   -1.2126    0.6622 C   0  0  0  0  0
    2.0552    0.9238   -1.2272 C   0  0  0  0  0
    2.0680    1.9625   -2.1582 C   0  0  0  0  0
   -0.0509    1.7284   -0.3587 C   0  0  0  0  0
   -3.2456   -2.5882    0.4340 C   0  0  0  0  0
   -2.7768   -0.3500   -0.3458 C   0  0  0  0  0
    3.1493   -0.0639   -1.1729 C   0  0  0  0  0
    2.8216    4.5359   -5.1985 C   0  0  0  0  0
    4.0963    4.8500   -4.4126 C   0  0  0  0  0
    2.8900    3.2673   -6.0513 C   0  0  0  0  0
    4.0881    4.3910   -2.9546 C   0  0  0  0  0
    2.2744    2.0230   -5.4113 C   0  0  0  0  0
    4.3127    2.8936   -2.7572 C   0  0  0  0  0
    3.1396    1.3643   -4.3392 C   0  0  0  0  0
    3.1210    2.0974   -3.0691 N   0  0  0  0  0
   -1.1356    1.6088    0.5618 N   0  0  0  0  0
    3.0534   -1.1302   -1.8862 O   0  0  0  0  0
    4.1597    0.1761   -0.4140 O   0  0  0  0  0
   -3.6864    1.6728    0.9984 O   0  0  0  0  0
   -2.8579    2.0604   -1.3388 O   0  0  0  0  0
   -3.6603   -3.4166    1.4016 F   0  0  0  0  0
   -2.7294    1.3954   -0.0565 S   0  0  0  0  0
  1  4  1  0  0  0
  2  9  1  0  0  0
  3 10  1  0  0  0
  5 12  1  0  0  0
  6  8  1  0  0  0
  7 11  1  0  0  0
  8 13  1  0  0  0
  9 21  1  0  0  0
 10 22  1  0  0  0
 11 27  1  0  0  0
 13 23  1  0  0  0
 14 15  1  0  0  0
 14 16  1  0  0  0
 15 17  1  0  0  0
 16 18  1  0  0  0
 17 19  1  0  0  0
 18 20  1  0  0  0
 19 21  1  0  0  0
 20 21  1  0  0  0
 28 12  1  0  0  0
 28 22  1  0  0  0
  1  5  2  0  0  0
  2  3  2  0  0  0
  4 11  2  0  0  0
  6 10  2  0  0  0
  7 12  2  0  0  0
  8  9  2  0  0  0
 13 24  2  0  0  0
 28 25  2  0  0  0
 28 26  2  0  0  0
M  CHG  1  23  -1
M  END
> <rmsd>
0.706735492

$$$$
ZINC32962187


 28 30  0  0  0  0  0  0  0  0999 V2000
   -2.9076   -2.3075   -1.7768 C   0  0  0  0  0
    0.8693    2.5245   -2.5702 C   0  0  0  0  0
   -0.1066    2.5011   -1.5739 C   0  0  0  0  0
   -3.3069   -3.1219   -0.7173 C   0  0  0  0  0
   -2.7424   -0.9366   -1.5789 C   0  0  0  0  0
    0.8588    0.4768   -0.6756 C   0  0  0  0  0
   -3.3761   -1.1948    0.7382 C   0  0  0  0  0
    1.8347    0.5000   -1.6720 C   0  0  0  0  0
    1.8399    1.5239   -2.6193 C   0  0  0  0  0
   -0.1119    1.4773   -0.6265 C   0  0  0  0  0
   -3.5412   -2.5657    0.5402 C   0  0  0  0  0
   -2.9766   -0.3802   -0.3214 C   0  0  0  0  0
    2.8496   -0.5699   -1.7012 C   0  0  0  0  0
    2.5000    3.9955   -5.7640 C   0  0  0  0  0
    3.8635    4.2174   -5.1061 C   0  0  0  0  0
    2.3898    2.7158   -6.5956 C   0  0  0  0  0
    3.9572    3.7770   -3.6453 C   0  0  0  0  0
    1.7431    1.5311   -5.8781 C   0  0  0  0  0
    4.0832    2.2689   -3.4418 C   0  0  0  0  0
    2.6520    0.8187   -4.8791 C   0  0  0  0  0
    2.8097    1.5653   -3.6266 N   0  0  0  0  0
   -1.1111    1.4538    0.3929 N   0  0  0  0  0
    2.6049   -1.6333   -2.3826 O   0  0  0  0  0
    3.9425   -0.4014   -1.0442 O   0  0  0  0  0
   -3.5968    1.7229    1.0636 O   0  0  0  0  0
   -2.9647    2.0177   -1.3474 O   0  0  0  0  0
   -3.9256   -3.3479    1.5575 F   0  0  0  0  0
   -2.7677    1.3592   -0.0703 S   0  0  0  0  0
  1  4  1  0  0  0
  2  9  1  0  0  0
  3 10  1  0  0  0
  5 12  1  0  0  0
  6  8  1  0  0  0
  7 11  1  0  0  0
  8 13  1  0  0  0
  9 21  1  0  0  0
 10 22  1  0  0  0
 11 27  1  0  0  0
 13 23  1  0  0  0
 14 15  1  0  0  0
 14 16  1  0  0  0
 15 17  1  0  0  0
 16 18  1  0  0  0
 17 19  1  0  0  0
 18 20  1  0  0  0
 19 21  1  0  0  0
 20 21  1  0  0  0
 28 12  1  0  0  0
 28 22  1  0  0  0
  1  5  2  0  0  0
  2  3  2  0  0  0
  4 11  2  0  0  0
  6 10  2  0  0  0
  7 12  2  0  0  0
  8  9  2  0  0  0
 13 24  2  0  0  0
 28 25  2  0  0  0
 28 26  2  0  0  0
M  CHG  1  23  -1
M  END
> <rmsd>
0.525749683

$$$$
ZINC64580536


 28 30  0  0  0  0  0  0  0  0999 V2000
    1.0209    2.8834   -2.1909 C   0  0  0  0  0
   -0.0385    2.7665   -1.2911 C   0  0  0  0  0
   -2.4210   -2.2389   -1.8106 C   0  0  0  0  0
   -3.2440   -2.5887    0.4338 C   0  0  0  0  0
   -2.3843   -0.8633   -1.5827 C   0  0  0  0  0
   -3.2073   -1.2131    0.6617 C   0  0  0  0  0
    0.9953    0.8063   -0.3289 C   0  0  0  0  0
    2.0546    0.9232   -1.2287 C   0  0  0  0  0
    2.0674    1.9618   -2.1597 C   0  0  0  0  0
   -0.0514    1.7279   -0.3601 C   0  0  0  0  0
   -2.8510   -3.1016   -0.8023 C   0  0  0  0  0
   -2.7774   -0.3504   -0.3466 C   0  0  0  0  0
    3.1486   -0.0647   -1.1744 C   0  0  0  0  0
    4.2712    2.9152   -2.6659 C   0  0  0  0  0
    2.8445    2.0449   -4.5105 C   0  0  0  0  0
    5.5176    2.5114   -3.4417 C   0  0  0  0  0
    4.0947    1.6476   -5.2848 C   0  0  0  0  0
    6.4537    2.3132   -5.7450 C   0  0  0  0  0
   -2.4705   -4.9004   -2.3109 C   0  0  0  0  0
    3.1210    2.0966   -3.0713 N   0  0  0  0  0
   -1.1360    1.6085    0.5607 N   0  0  0  0  0
    5.2255    2.5746   -4.9195 N   0  0  0  0  0
    3.0526   -1.1308   -1.8877 O   0  0  0  0  0
    4.1592    0.1756   -0.4155 O   0  0  0  0  0
   -3.6867    1.6726    0.9975 O   0  0  0  0  0
   -2.8585    2.0600   -1.3399 O   0  0  0  0  0
   -2.8865   -4.4439   -1.0246 O   0  0  0  0  0
   -2.7298    1.3951   -0.0575 S   0  0  0  0  0
  1  9  1  0  0  0
  2 10  1  0  0  0
  3 11  1  0  0  0
  4  6  1  0  0  0
  5 12  1  0  0  0
  7  8  1  0  0  0
  8 13  1  0  0  0
  9 20  1  0  0  0
 10 21  1  0  0  0
 11 27  1  0  0  0
 13 23  1  0  0  0
 14 16  1  0  0  0
 14 20  1  0  0  0
 15 17  1  0  0  0
 15 20  1  0  0  0
 16 22  1  0  0  0
 17 22  1  0  0  0
 18 22  1  0  0  0
 19 27  1  0  0  0
 28 12  1  0  0  0
 28 21  1  0  0  0
  1  2  2  0  0  0
  3  5  2  0  0  0
  4 11  2  0  0  0
  6 12  2  0  0  0
  7 10  2  0  0  0
  8  9  2  0  0  0
 13 24  2  0  0  0
 28 25  2  0  0  0
 28 26  2  0  0  0
M  CHG  2  22   1  23  -1
M  END
> <rmsd>
0.707215846

$$$$
ZINC64580536


 28 30  0  0  0  0  0  0  0  0999 V2000
    0.8686    2.5242   -2.5715 C   0  0  0  0  0
   -0.1073    2.5008   -1.5752 C   0  0  0  0  0
   -2.9067   -2.3077   -1.7776 C   0  0  0  0  0
   -3.5392   -2.5664    0.5398 C   0  0  0  0  0
   -2.7428   -0.9367   -1.5797 C   0  0  0  0  0
   -3.3753   -1.1955    0.7376 C   0  0  0  0  0
    0.8583    0.4766   -0.6768 C   0  0  0  0  0
    1.8341    0.4999   -1.6733 C   0  0  0  0  0
    1.8393    1.5236   -2.6206 C   0  0  0  0  0
   -0.1124    1.4771   -0.6278 C   0  0  0  0  0
   -3.3050   -3.1225   -0.7178 C   0  0  0  0  0
   -2.9771   -0.3806   -0.3222 C   0  0  0  0  0
    2.8490   -0.5701   -1.7025 C   0  0  0  0  0
    4.0524    2.2954   -3.3472 C   0  0  0  0  0
    2.3956    1.5189   -5.0346 C   0  0  0  0  0
    5.1855    1.7863   -4.2278 C   0  0  0  0  0
    3.5331    1.0160   -5.9143 C   0  0  0  0  0
    5.8826    1.4891   -6.6041 C   0  0  0  0  0
   -3.2080   -4.9626   -2.2214 C   0  0  0  0  0
    2.8095    1.5650   -3.6286 N   0  0  0  0  0
   -1.1115    1.4537    0.3919 N   0  0  0  0  0
    4.7613    1.8554   -5.6729 N   0  0  0  0  0
    2.6044   -1.6335   -2.3838 O   0  0  0  0  0
    3.9420   -0.4014   -1.0455 O   0  0  0  0  0
   -3.5973    1.7226    1.0627 O   0  0  0  0  0
   -2.9654    2.0173   -1.3484 O   0  0  0  0  0
   -3.4647   -4.4603   -0.9107 O   0  0  0  0  0
   -2.7682    1.3590   -0.0713 S   0  0  0  0  0
  1  9  1  0  0  0
  2 10  1  0  0  0
  3 11  1  0  0  0
  4  6  1  0  0  0
  5 12  1  0  0  0
  7  8  1  0  0  0
  8 13  1  0  0  0
  9 20  1  0  0  0
 10 21  1  0  0  0
 11 27  1  0  0  0
 13 23  1  0  0  0
 14 16  1  0  0  0
 14 20  1  0  0  0
 15 17  1  0  0  0
 15 20  1  0  0  0
 16 22  1  0  0  0
 17 22  1  0  0  0
 18 22  1  0  0  0
 19 27  1  0  0  0
 28 12  1  0  0  0
 28 21  1  0  0  0
  1  2  2  0  0  0
  3  5  2  0  0  0
  4 11  2  0  0  0
  6 12  2  0  0  0
  7 10  2  0  0  0
  8  9  2  0  0  0
 13 24  2  0  0  0
 28 25  2  0  0  0
 28 26  2  0  0  0
M  CHG  2  22   1  23  -1
M  END
> <rmsd>
0.526278079

$$$$
ZINC58009213


 28 30  0  0  0  0  0  0  0  0999 V2000
    1.9428    1.5940   -2.4783 C   0  0  0  0  0
    1.0434    2.6560   -2.3843 C   0  0  0  0  0
   -3.4467   -2.5776    0.5042 C   0  0  0  0  0
   -2.7540   -2.2971   -1.7933 C   0  0  0  0  0
   -3.3180   -1.2042    0.7108 C   0  0  0  0  0
   -2.6253   -0.9237   -1.5867 C   0  0  0  0  0
    0.8212    0.4825   -0.6497 C   0  0  0  0  0
    1.8317    0.5071   -1.6110 C   0  0  0  0  0
    0.0330    2.6313   -1.4231 C   0  0  0  0  0
   -0.0782    1.5445   -0.5558 C   0  0  0  0  0
   -3.1647   -3.1241   -0.7478 C   0  0  0  0  0
   -2.9073   -0.3773   -0.3347 C   0  0  0  0  0
    2.7807   -0.6133   -1.7107 C   0  0  0  0  0
   -1.1534    4.4380   -2.5853 C   0  0  0  0  0
   -0.9517    4.4831   -0.1048 C   0  0  0  0  0
   -2.5001    5.1416   -2.4868 C   0  0  0  0  0
   -2.2971    5.1916   -0.0122 C   0  0  0  0  0
   -3.7712    6.8363   -1.1706 C   0  0  0  0  0
   -3.7152   -5.2511    0.1626 C   0  0  0  0  0
   -0.8591    3.7071   -1.3456 N   0  0  0  0  0
   -1.1063    1.4970    0.4380 N   0  0  0  0  0
   -2.5170    6.0129   -1.2566 N   0  0  0  0  0
    2.6568   -1.6048   -0.8979 O   0  0  0  0  0
    3.7042   -0.5656   -2.6070 O   0  0  0  0  0
   -3.6128    1.7062    1.0393 O   0  0  0  0  0
   -2.9219    2.0242   -1.3525 O   0  0  0  0  0
   -3.2906   -4.4642   -0.9494 O   0  0  0  0  0
   -2.7449    1.3657   -0.0726 S   0  0  0  0  0
  1  8  1  0  0  0
  2  9  1  0  0  0
  3 11  1  0  0  0
  4  6  1  0  0  0
  5 12  1  0  0  0
  7 10  1  0  0  0
  8 13  1  0  0  0
  9 20  1  0  0  0
 10 21  1  0  0  0
 11 27  1  0  0  0
 13 23  1  0  0  0
 14 16  1  0  0  0
 14 20  1  0  0  0
 15 17  1  0  0  0
 15 20  1  0  0  0
 16 22  1  0  0  0
 17 22  1  0  0  0
 18 22  1  0  0  0
 19 27  1  0  0  0
 28 12  1  0  0  0
 28 21  1  0  0  0
  1  2  2  0  0  0
  3  5  2  0  0  0
  4 11  2  0  0  0
  6 12  2  0  0  0
  7  8  2  0  0  0
  9 10  2  0  0  0
 13 24  2  0  0  0
 28 25  2  0  0  0
 28 26  2  0  0  0
M  CHG  2  22   1  23  -1
M  END
> <rmsd>
0.588828981

$$$$
ZINC16926164


 27 29  0  0  0  0  0  0  0  0999 V2000
   -3.5857   -1.0597    0.5010 C   0  0  0  0  0
   -4.7941   -1.2946   -1.5780 C   0  0  0  0  0
   -3.7843   -2.4139    0.7694 C   0  0  0  0  0
   -4.9927   -2.6489   -1.3095 C   0  0  0  0  0
    1.3786   -1.6180    0.3160 C   0  0  0  0  0
   -4.0907   -0.5000   -0.6727 C   0  0  0  0  0
   -4.4877   -3.2086   -0.1358 C   0  0  0  0  0
    1.5813   -1.0123   -0.9063 C   0  0  0  0  0
    0.1570    0.4240   -0.0590 C   0  0  0  0  0
   -3.7731    1.8402    0.0785 C   0  0  0  0  0
   -3.8044    1.3776   -2.2515 C   0  0  0  0  0
   -0.9778    2.5678   -0.7359 C   0  0  0  0  0
    3.8783   -0.9316   -1.8063 C   0  0  0  0  0
   -3.4112    3.2083   -0.4509 C   0  0  0  0  0
    2.4679   -1.5083   -1.9775 C   0  0  0  0  0
   -1.9668    3.5457   -0.1191 C   0  0  0  0  0
    0.8814    0.1584   -1.1234 N   0  0  0  0  0
   -3.8853    0.8973   -0.9499 N   0  0  0  0  0
   -0.7073    1.5257    0.1463 N   0  0  0  0  0
    4.4723   -1.2698   -0.7435 O   0  0  0  0  0
   -3.9538    1.6659    1.2815 O   0  0  0  0  0
   -3.7808    0.7649   -3.3088 O   0  0  0  0  0
   -0.5180    2.7305   -1.8612 O   0  0  0  0  0
    4.2743   -0.1905   -2.7501 O   0  0  0  0  0
   -4.6814   -4.5299    0.1263 O   0  0  0  0  0
    0.2699   -0.6915    1.2401 S   0  0  0  0  0
   -3.6565    3.1261   -2.2343 S   0  0  0  0  0
  1  3  1  0  0  0
  2  6  1  0  0  0
  4  7  1  0  0  0
  5 26  1  0  0  0
  6 18  1  0  0  0
  7 25  1  0  0  0
  8 17  1  0  0  0
  9 19  1  0  0  0
  9 26  1  0  0  0
 10 18  1  0  0  0
 11 18  1  0  0  0
 11 27  1  0  0  0
 12 19  1  0  0  0
 13 20  1  0  0  0
 14 10  1  0  0  0
 14 16  1  0  0  0
 14 27  1  0  0  0
 15  8  1  0  0  0
 15 13  1  0  0  0
 16 12  1  0  0  0
  1  6  2  0  0  0
  2  4  2  0  0  0
  3  7  2  0  0  0
  5  8  2  0  0  0
  9 17  2  0  0  0
 10 21  2  0  0  0
 11 22  2  0  0  0
 12 23  2  0  0  0
 13 24  2  0  0  0
M  CHG  1  20  -1
M  END
> <rmsd>
0.541875064

$$$$
ZINC64472397


 28 30  0  0  0  0  0  0  0  0999 V2000
   -2.9046   -2.3902   -1.5751 C   0  0  0  0  0
   -3.7726   -2.5048    0.6766 C   0  0  0  0  0
   -2.7100   -1.0166   -1.4302 C   0  0  0  0  0
   -3.5780   -1.1312    0.8216 C   0  0  0  0  0
    0.7470    0.2547   -0.3285 C   0  0  0  0  0
    1.9879    1.2515   -2.0957 C   0  0  0  0  0
    1.8125    0.1925   -1.2196 C   0  0  0  0  0
   -0.0987    1.3583   -0.3406 C   0  0  0  0  0
   -3.4360   -3.1343   -0.5217 C   0  0  0  0  0
   -3.0467   -0.3871   -0.2319 C   0  0  0  0  0
    0.1623    2.3651   -1.2560 C   0  0  0  0  0
    2.7244   -0.9590   -1.2309 C   0  0  0  0  0
   -0.8789    4.1808   -2.5501 C   0  0  0  0  0
   -0.8214    4.3125   -0.0750 C   0  0  0  0  0
   -2.1663    4.9955   -2.4978 C   0  0  0  0  0
   -2.1118    5.1207   -0.1550 C   0  0  0  0  0
   -4.7610   -6.2012   -1.8731 C   0  0  0  0  0
   -3.9067   -4.9557   -1.9765 C   0  0  0  0  0
    1.1873    2.3401   -2.1371 N   0  0  0  0  0
   -0.6839    3.4787   -1.2742 N   0  0  0  0  0
   -1.1943    1.4220    0.5742 N   0  0  0  0  0
    3.6987   -0.9735   -2.0752 O   0  0  0  0  0
    2.5230   -1.9211   -0.3965 O   0  0  0  0  0
   -3.7215    1.8055    0.9776 O   0  0  0  0  0
   -2.8447    1.9513   -1.3696 O   0  0  0  0  0
   -2.1586    5.8693   -1.3691 O   0  0  0  0  0
   -3.6256   -4.4746   -0.6631 O   0  0  0  0  0
   -2.7988    1.3557   -0.0480 S   0  0  0  0  0
  1  9  1  0  0  0
  2  4  1  0  0  0
  3 10  1  0  0  0
  5  8  1  0  0  0
  6  7  1  0  0  0
  7 12  1  0  0  0
  8 21  1  0  0  0
  9 27  1  0  0  0
 11 19  1  0  0  0
 11 20  1  0  0  0
 12 22  1  0  0  0
 13 15  1  0  0  0
 13 20  1  0  0  0
 14 16  1  0  0  0
 14 20  1  0  0  0
 15 26  1  0  0  0
 16 26  1  0  0  0
 17 18  1  0  0  0
 18 27  1  0  0  0
 28 10  1  0  0  0
 28 21  1  0  0  0
  1  3  2  0  0  0
  2  9  2  0  0  0
  4 10  2  0  0  0
  5  7  2  0  0  0
  6 19  2  0  0  0
  8 11  2  0  0  0
 12 23  2  0  0  0
 28 24  2  0  0  0
 28 25  2  0  0  0
M  CHG  1  22  -1
M  END
> <rmsd>
0.415235966

$$$$
ZINC64472397


 28 30  0  0  0  0  0  0  0  0999 V2000
   -2.7652   -2.3104   -1.7728 C   0  0  0  0  0
   -3.4756   -2.5732    0.5213 C   0  0  0  0  0
   -2.6292   -0.9366   -1.5733 C   0  0  0  0  0
   -3.3397   -1.1993    0.7209 C   0  0  0  0  0
    0.8265    0.4618   -0.6331 C   0  0  0  0  0
    1.8972    1.6019   -2.4248 C   0  0  0  0  0
    1.8325    0.4962   -1.5923 C   0  0  0  0  0
   -0.0714    1.5191   -0.5371 C   0  0  0  0  0
   -3.1886   -3.1287   -0.7255 C   0  0  0  0  0
   -2.9164   -0.3810   -0.3265 C   0  0  0  0  0
    0.0787    2.5791   -1.4167 C   0  0  0  0  0
    2.7971   -0.6044   -1.7182 C   0  0  0  0  0
   -1.1338    4.3952   -2.5511 C   0  0  0  0  0
   -0.9193    4.4162   -0.0813 C   0  0  0  0  0
   -2.4534    5.1383   -2.3769 C   0  0  0  0  0
   -2.2503    5.1588   -0.0390 C   0  0  0  0  0
   -4.4477   -6.1955   -2.1386 C   0  0  0  0  0
   -3.6643   -4.9037   -2.2350 C   0  0  0  0  0
    1.0431    2.6480   -2.3615 N   0  0  0  0  0
   -0.8205    3.6465   -1.3262 N   0  0  0  0  0
   -1.1059    1.4835    0.4478 N   0  0  0  0  0
    3.7129   -0.5293   -2.6226 O   0  0  0  0  0
    2.6989   -1.6129   -0.9210 O   0  0  0  0  0
   -3.6167    1.7156    1.0297 O   0  0  0  0  0
   -2.9053    2.0143   -1.3586 O   0  0  0  0  0
   -2.4140    5.9587   -1.2094 O   0  0  0  0  0
   -3.3209   -4.4692   -0.9201 O   0  0  0  0  0
   -2.7429    1.3620   -0.0734 S   0  0  0  0  0
  1  9  1  0  0  0
  2  4  1  0  0  0
  3 10  1  0  0  0
  5  8  1  0  0  0
  6  7  1  0  0  0
  7 12  1  0  0  0
  8 21  1  0  0  0
  9 27  1  0  0  0
 11 19  1  0  0  0
 11 20  1  0  0  0
 12 22  1  0  0  0
 13 15  1  0  0  0
 13 20  1  0  0  0
 14 16  1  0  0  0
 14 20  1  0  0  0
 15 26  1  0  0  0
 16 26  1  0  0  0
 17 18  1  0  0  0
 18 27  1  0  0  0
 28 10  1  0  0  0
 28 21  1  0  0  0
  1  3  2  0  0  0
  2  9  2  0  0  0
  4 10  2  0  0  0
  5  7  2  0  0  0
  6 19  2  0  0  0
  8 11  2  0  0  0
 12 23  2  0  0  0
 28 24  2  0  0  0
 28 25  2  0  0  0
M  CHG  1  22  -1
M  END
> <rmsd>
0.57241261

$$$$
ZINC35397581


 28 30  0  0  0  0  0  0  0  0999 V2000
   -3.2788   -2.5841    0.4524 C   0  0  0  0  0
   -2.4320   -2.2551   -1.7863 C   0  0  0  0  0
   -3.2323   -1.2074    0.6721 C   0  0  0  0  0
   -2.3855   -0.8785   -1.5666 C   0  0  0  0  0
    1.0045    0.7851   -0.3100 C   0  0  0  0  0
    0.0115    2.7196   -1.2735 C   0  0  0  0  0
    2.0569    0.9144   -1.2095 C   0  0  0  0  0
   -0.0416    1.7007   -0.3360 C   0  0  0  0  0
   -2.8785   -3.1080   -0.7769 C   0  0  0  0  0
   -2.7857   -0.3546   -0.3372 C   0  0  0  0  0
    2.0159    1.9684   -2.1081 C   0  0  0  0  0
    3.1638   -0.0569   -1.1800 C   0  0  0  0  0
    2.7776    4.5479   -5.1413 C   0  0  0  0  0
    4.0505    4.8599   -4.3516 C   0  0  0  0  0
    2.8477    3.2810   -5.9965 C   0  0  0  0  0
    4.0386    4.3979   -2.8947 C   0  0  0  0  0
    2.2303    2.0356   -5.3606 C   0  0  0  0  0
    4.2622    2.9000   -2.6998 C   0  0  0  0  0
    3.0926    1.3744   -4.2878 C   0  0  0  0  0
    1.0169    2.8775   -2.1634 N   0  0  0  0  0
    3.0712    2.1049   -3.0161 N   0  0  0  0  0
   -1.1339    1.5943    0.5729 N   0  0  0  0  0
    3.0768   -1.1163   -1.9061 O   0  0  0  0  0
    4.1805    0.1866   -0.4288 O   0  0  0  0  0
   -3.6903    1.6843    0.9858 O   0  0  0  0  0
   -2.8358    2.0503   -1.3456 O   0  0  0  0  0
   -2.9217   -4.4301   -0.9875 F   0  0  0  0  0
   -2.7256    1.3921   -0.0580 S   0  0  0  0  0
  1  3  1  0  0  0
  2  9  1  0  0  0
  4 10  1  0  0  0
  5  8  1  0  0  0
  6 20  1  0  0  0
  7 11  1  0  0  0
  7 12  1  0  0  0
  8 22  1  0  0  0
  9 27  1  0  0  0
 11 21  1  0  0  0
 12 23  1  0  0  0
 13 14  1  0  0  0
 13 15  1  0  0  0
 14 16  1  0  0  0
 15 17  1  0  0  0
 16 18  1  0  0  0
 17 19  1  0  0  0
 18 21  1  0  0  0
 19 21  1  0  0  0
 28 10  1  0  0  0
 28 22  1  0  0  0
  1  9  2  0  0  0
  2  4  2  0  0  0
  3 10  2  0  0  0
  5  7  2  0  0  0
  6  8  2  0  0  0
 11 20  2  0  0  0
 12 24  2  0  0  0
 28 25  2  0  0  0
 28 26  2  0  0  0
M  CHG  1  23  -1
M  END
> <rmsd>
0.689599693

$$$$
ZINC35397581


 28 30  0  0  0  0  0  0  0  0999 V2000
   -3.5695   -2.5596    0.5585 C   0  0  0  0  0
   -2.9149   -2.3217   -1.7549 C   0  0  0  0  0
   -3.3973   -1.1885    0.7482 C   0  0  0  0  0
   -2.7427   -0.9506   -1.5652 C   0  0  0  0  0
    0.8682    0.4571   -0.6601 C   0  0  0  0  0
   -0.0602    2.4527   -1.5615 C   0  0  0  0  0
    1.8378    0.4944   -1.6560 C   0  0  0  0  0
   -0.1025    1.4511   -0.6050 C   0  0  0  0  0
   -3.3283   -3.1262   -0.6931 C   0  0  0  0  0
   -2.9838   -0.3839   -0.3135 C   0  0  0  0  0
    1.7931    1.5386   -2.5657 C   0  0  0  0  0
    2.8650   -0.5598   -1.7124 C   0  0  0  0  0
    2.4606    4.0184   -5.7025 C   0  0  0  0  0
    3.8225    4.2387   -5.0406 C   0  0  0  0  0
    2.3525    2.7408   -6.5376 C   0  0  0  0  0
    3.9127    3.7946   -3.5808 C   0  0  0  0  0
    1.7043    1.5542   -5.8247 C   0  0  0  0  0
    4.0384    2.2860   -3.3808 C   0  0  0  0  0
    2.6108    0.8393   -4.8252 C   0  0  0  0  0
    0.8659    2.5223   -2.5439 N   0  0  0  0  0
    2.7654    1.5828   -3.5704 N   0  0  0  0  0
   -1.1091    1.4399    0.4035 N   0  0  0  0  0
    2.6290   -1.6169   -2.4080 O   0  0  0  0  0
    3.9636   -0.3884   -1.0637 O   0  0  0  0  0
   -3.6007    1.7333    1.0512 O   0  0  0  0  0
   -2.9445    2.0066   -1.3559 O   0  0  0  0  0
   -3.4923   -4.4431   -0.8750 F   0  0  0  0  0
   -2.7640    1.3556   -0.0725 S   0  0  0  0  0
  1  3  1  0  0  0
  2  9  1  0  0  0
  4 10  1  0  0  0
  5  8  1  0  0  0
  6 20  1  0  0  0
  7 11  1  0  0  0
  7 12  1  0  0  0
  8 22  1  0  0  0
  9 27  1  0  0  0
 11 21  1  0  0  0
 12 23  1  0  0  0
 13 14  1  0  0  0
 13 15  1  0  0  0
 14 16  1  0  0  0
 15 17  1  0  0  0
 16 18  1  0  0  0
 17 19  1  0  0  0
 18 21  1  0  0  0
 19 21  1  0  0  0
 28 10  1  0  0  0
 28 22  1  0  0  0
  1  9  2  0  0  0
  2  4  2  0  0  0
  3 10  2  0  0  0
  5  7  2  0  0  0
  6  8  2  0  0  0
 11 20  2  0  0  0
 12 24  2  0  0  0
 28 25  2  0  0  0
 28 26  2  0  0  0
M  CHG  1  23  -1
M  END
> <rmsd>
0.510643661

$$$$
ZINC35397608


 28 30  0  0  0  0  0  0  0  0999 V2000
   -3.2799   -2.5849    0.4529 C   0  0  0  0  0
   -2.8804   -3.1089   -0.7765 C   0  0  0  0  0
   -3.2330   -1.2082    0.6728 C   0  0  0  0  0
    1.0038    0.7843   -0.3097 C   0  0  0  0  0
   -2.3870   -0.8795   -1.5662 C   0  0  0  0  0
    0.0106    2.7187   -1.2733 C   0  0  0  0  0
    2.0560    0.9136   -1.2093 C   0  0  0  0  0
   -0.0424    1.6998   -0.3358 C   0  0  0  0  0
   -2.4339   -2.2562   -1.7861 C   0  0  0  0  0
   -2.7865   -0.3555   -0.3368 C   0  0  0  0  0
    2.0150    1.9675   -2.1080 C   0  0  0  0  0
    3.1631   -0.0576   -1.1798 C   0  0  0  0  0
    2.7765    4.5469   -5.1413 C   0  0  0  0  0
    4.0494    4.8590   -4.3518 C   0  0  0  0  0
    2.8466    3.2799   -5.9965 C   0  0  0  0  0
    4.0376    4.3971   -2.8948 C   0  0  0  0  0
    2.2293    2.0345   -5.3605 C   0  0  0  0  0
    4.2613    2.8992   -2.6998 C   0  0  0  0  0
    3.0917    1.3735   -4.2877 C   0  0  0  0  0
    1.0159    2.8766   -2.1633 N   0  0  0  0  0
    3.0703    2.1040   -3.0160 N   0  0  0  0  0
   -1.1347    1.5935    0.5731 N   0  0  0  0  0
    3.0761   -1.1171   -1.9058 O   0  0  0  0  0
    4.1798    0.1859   -0.4286 O   0  0  0  0  0
   -3.6910    1.6835    0.9861 O   0  0  0  0  0
   -2.8367    2.0493   -1.3454 O   0  0  0  0  0
   -2.0495   -2.7596   -2.9664 F   0  0  0  0  0
   -2.7264    1.3912   -0.0577 S   0  0  0  0  0
  1  2  1  0  0  0
  3 10  1  0  0  0
  4  8  1  0  0  0
  5  9  1  0  0  0
  6 20  1  0  0  0
  7 11  1  0  0  0
  7 12  1  0  0  0
  8 22  1  0  0  0
  9 27  1  0  0  0
 11 21  1  0  0  0
 12 23  1  0  0  0
 13 14  1  0  0  0
 13 15  1  0  0  0
 14 16  1  0  0  0
 15 17  1  0  0  0
 16 18  1  0  0  0
 17 19  1  0  0  0
 18 21  1  0  0  0
 19 21  1  0  0  0
 28 10  1  0  0  0
 28 22  1  0  0  0
  1  3  2  0  0  0
  2  9  2  0  0  0
  4  7  2  0  0  0
  5 10  2  0  0  0
  6  8  2  0  0  0
 11 20  2  0  0  0
 12 24  2  0  0  0
 28 25  2  0  0  0
 28 26  2  0  0  0
M  CHG  1  23  -1
M  END
> <rmsd>
0.689254701

$$$$
ZINC35397608


 28 30  0  0  0  0  0  0  0  0999 V2000
   -3.5707   -2.5604    0.5591 C   0  0  0  0  0
   -3.3302   -3.1270   -0.6926 C   0  0  0  0  0
   -3.3979   -1.1892    0.7489 C   0  0  0  0  0
    0.8674    0.4563   -0.6598 C   0  0  0  0  0
   -2.7441   -0.9515   -1.5647 C   0  0  0  0  0
   -0.0610    2.4519   -1.5612 C   0  0  0  0  0
    1.8370    0.4936   -1.6557 C   0  0  0  0  0
   -0.1033    1.4503   -0.6046 C   0  0  0  0  0
   -2.9169   -2.3226   -1.7545 C   0  0  0  0  0
   -2.9846   -0.3848   -0.3131 C   0  0  0  0  0
    1.7923    1.5379   -2.5654 C   0  0  0  0  0
    2.8642   -0.5606   -1.7120 C   0  0  0  0  0
    2.4596    4.0175   -5.7023 C   0  0  0  0  0
    3.8215    4.2379   -5.0405 C   0  0  0  0  0
    2.3515    2.7399   -6.5374 C   0  0  0  0  0
    3.9117    3.7939   -3.5807 C   0  0  0  0  0
    1.7034    1.5533   -5.8244 C   0  0  0  0  0
    4.0375    2.2853   -3.3806 C   0  0  0  0  0
    2.6099    0.8385   -4.8249 C   0  0  0  0  0
    0.8650    2.5215   -2.5437 N   0  0  0  0  0
    2.7645    1.5820   -3.5701 N   0  0  0  0  0
   -1.1100    1.4391    0.4038 N   0  0  0  0  0
    2.6282   -1.6177   -2.4076 O   0  0  0  0  0
    3.9628   -0.3890   -1.0633 O   0  0  0  0  0
   -3.6015    1.7325    1.0516 O   0  0  0  0  0
   -2.9454    2.0057   -1.3555 O   0  0  0  0  0
   -2.6852   -2.8669   -2.9563 F   0  0  0  0  0
   -2.7649    1.3548   -0.0721 S   0  0  0  0  0
  1  2  1  0  0  0
  3 10  1  0  0  0
  4  8  1  0  0  0
  5  9  1  0  0  0
  6 20  1  0  0  0
  7 11  1  0  0  0
  7 12  1  0  0  0
  8 22  1  0  0  0
  9 27  1  0  0  0
 11 21  1  0  0  0
 12 23  1  0  0  0
 13 14  1  0  0  0
 13 15  1  0  0  0
 14 16  1  0  0  0
 15 17  1  0  0  0
 16 18  1  0  0  0
 17 19  1  0  0  0
 18 21  1  0  0  0
 19 21  1  0  0  0
 28 10  1  0  0  0
 28 22  1  0  0  0
  1  3  2  0  0  0
  2  9  2  0  0  0
  4  7  2  0  0  0
  5 10  2  0  0  0
  6  8  2  0  0  0
 11 20  2  0  0  0
 12 24  2  0  0  0
 28 25  2  0  0  0
 28 26  2  0  0  0
M  CHG  1  23  -1
M  END
> <rmsd>
0.510211766

$$$$
ZINC35397608


 28 30  0  0  0  0  0  0  0  0999 V2000
   -2.4340   -2.2554   -1.7864 C   0  0  0  0  0
   -2.8809   -3.1079   -0.7770 C   0  0  0  0  0
   -2.3863   -0.8788   -1.5663 C   0  0  0  0  0
    1.0047    0.7853   -0.3095 C   0  0  0  0  0
   -3.2325   -1.2074    0.6727 C   0  0  0  0  0
    0.0115    2.7196   -1.2731 C   0  0  0  0  0
    2.0570    0.9147   -1.2091 C   0  0  0  0  0
   -0.0415    1.7008   -0.3356 C   0  0  0  0  0
   -3.2802   -2.5840    0.4525 C   0  0  0  0  0
   -2.7854   -0.3548   -0.3367 C   0  0  0  0  0
    2.0159    1.9685   -2.1077 C   0  0  0  0  0
    3.1641   -0.0565   -1.1795 C   0  0  0  0  0
    2.7773    4.5480   -5.1411 C   0  0  0  0  0
    4.0502    4.8602   -4.3515 C   0  0  0  0  0
    2.8476    3.2810   -5.9962 C   0  0  0  0  0
    4.0384    4.3983   -2.8945 C   0  0  0  0  0
    2.2303    2.0356   -5.3603 C   0  0  0  0  0
    4.2622    2.9004   -2.6995 C   0  0  0  0  0
    3.0927    1.3746   -4.2874 C   0  0  0  0  0
    1.0168    2.8776   -2.1631 N   0  0  0  0  0
    3.0712    2.1051   -3.0158 N   0  0  0  0  0
   -1.1338    1.5943    0.5732 N   0  0  0  0  0
    3.0772   -1.1159   -1.9055 O   0  0  0  0  0
    4.1807    0.1871   -0.4283 O   0  0  0  0  0
   -3.6902    1.6841    0.9862 O   0  0  0  0  0
   -2.8358    2.0500   -1.3453 O   0  0  0  0  0
   -3.7101   -3.4028    1.4216 F   0  0  0  0  0
   -2.7255    1.3919   -0.0576 S   0  0  0  0  0
  1  2  1  0  0  0
  3 10  1  0  0  0
  4  8  1  0  0  0
  5  9  1  0  0  0
  6 20  1  0  0  0
  7 11  1  0  0  0
  7 12  1  0  0  0
  8 22  1  0  0  0
  9 27  1  0  0  0
 11 21  1  0  0  0
 12 23  1  0  0  0
 13 14  1  0  0  0
 13 15  1  0  0  0
 14 16  1  0  0  0
 15 17  1  0  0  0
 16 18  1  0  0  0
 17 19  1  0  0  0
 18 21  1  0  0  0
 19 21  1  0  0  0
 28 10  1  0  0  0
 28 22  1  0  0  0
  1  3  2  0  0  0
  2  9  2  0  0  0
  4  7  2  0  0  0
  5 10  2  0  0  0
  6  8  2  0  0  0
 11 20  2  0  0  0
 12 24  2  0  0  0
 28 25  2  0  0  0
 28 26  2  0  0  0
M  CHG  1  23  -1
M  END
> <rmsd>
0.688890517

$$$$
ZINC35397608


 28 30  0  0  0  0  0  0  0  0999 V2000
   -2.9170   -2.3218   -1.7548 C   0  0  0  0  0
   -3.3307   -3.1260   -0.6931 C   0  0  0  0  0
   -2.7434   -0.9508   -1.5649 C   0  0  0  0  0
    0.8685    0.4572   -0.6596 C   0  0  0  0  0
   -3.3974   -1.1885    0.7487 C   0  0  0  0  0
   -0.0601    2.4527   -1.5611 C   0  0  0  0  0
    1.8381    0.4946   -1.6555 C   0  0  0  0  0
   -0.1023    1.4512   -0.6046 C   0  0  0  0  0
   -3.5709   -2.5595    0.5587 C   0  0  0  0  0
   -2.9835   -0.3841   -0.3131 C   0  0  0  0  0
    1.7933    1.5388   -2.5652 C   0  0  0  0  0
    2.8653   -0.5595   -1.7119 C   0  0  0  0  0
    2.4606    4.0185   -5.7021 C   0  0  0  0  0
    3.8224    4.2390   -5.0403 C   0  0  0  0  0
    2.3526    2.7409   -6.5372 C   0  0  0  0  0
    3.9127    3.7950   -3.5805 C   0  0  0  0  0
    1.7045    1.5542   -5.8242 C   0  0  0  0  0
    4.0385    2.2864   -3.3804 C   0  0  0  0  0
    2.6111    0.8395   -4.8247 C   0  0  0  0  0
    0.8660    2.5224   -2.5435 N   0  0  0  0  0
    2.7656    1.5830   -3.5699 N   0  0  0  0  0
   -1.1090    1.4399    0.4039 N   0  0  0  0  0
    2.6295   -1.6167   -2.4074 O   0  0  0  0  0
    3.9640   -0.3879   -1.0631 O   0  0  0  0  0
   -3.6006    1.7331    1.0516 O   0  0  0  0  0
   -2.9444    2.0064   -1.3555 O   0  0  0  0  0
   -3.9691   -3.3319    1.5782 F   0  0  0  0  0
   -2.7639    1.3555   -0.0721 S   0  0  0  0  0
  1  2  1  0  0  0
  3 10  1  0  0  0
  4  8  1  0  0  0
  5  9  1  0  0  0
  6 20  1  0  0  0
  7 11  1  0  0  0
  7 12  1  0  0  0
  8 22  1  0  0  0
  9 27  1  0  0  0
 11 21  1  0  0  0
 12 23  1  0  0  0
 13 14  1  0  0  0
 13 15  1  0  0  0
 14 16  1  0  0  0
 15 17  1  0  0  0
 16 18  1  0  0  0
 17 19  1  0  0  0
 18 21  1  0  0  0
 19 21  1  0  0  0
 28 10  1  0  0  0
 28 22  1  0  0  0
  1  3  2  0  0  0
  2  9  2  0  0  0
  4  7  2  0  0  0
  5 10  2  0  0  0
  6  8  2  0  0  0
 11 20  2  0  0  0
 12 24  2  0  0  0
 28 25  2  0  0  0
 28 26  2  0  0  0
M  CHG  1  23  -1
M  END
> <rmsd>
0.510067761

$$$$
ZINC06362116


 25 26  0  0  0  0  0  0  0  0999 V2000
    2.0288    1.2229   -2.1632 C   0  0  0  0  0
    1.1755    2.3260   -2.1831 C   0  0  0  0  0
   -3.2863   -2.2879   -1.6936 C   0  0  0  0  0
   -3.1042   -0.9184   -1.5018 C   0  0  0  0  0
    0.7524    0.2681   -0.3477 C   0  0  0  0  0
   -0.1010    1.3713   -0.3675 C   0  0  0  0  0
    1.8173    0.1938   -1.2456 C   0  0  0  0  0
    0.1106    2.4002   -1.2853 C   0  0  0  0  0
   -3.3959   -3.1379   -0.5930 C   0  0  0  0  0
   -3.0317   -0.3988   -0.2093 C   0  0  0  0  0
   -3.3234   -2.6183    0.6994 C   0  0  0  0  0
   -3.1413   -1.2488    0.8913 C   0  0  0  0  0
   -0.3564    4.5957   -0.4993 C   0  0  0  0  0
   -4.9164   -4.9369   -0.9210 C   0  0  0  0  0
   -1.1871    1.4341    0.5600 N   0  0  0  0  0
    2.6857   -0.9295   -1.2259 N   0  0  0  0  0
    3.6374   -0.9767   -2.0425 O   0  0  0  0  0
    2.4781   -1.8440   -0.3922 O   0  0  0  0  0
   -3.7121    1.7983    0.9889 O   0  0  0  0  0
   -2.8638    1.9312   -1.3696 O   0  0  0  0  0
   -0.7126    3.4859   -1.3207 O   0  0  0  0  0
   -3.5728   -4.4711   -0.8180 O   0  0  0  0  0
   -2.7974    1.3477   -0.0435 S   0  0  0  0  0
   -3.4642   -3.7125    2.0390 Cl  0  0  0  0  0
   -3.0499   -0.5870    2.4949 Cl  0  0  0  0  0
  1  7  1  0  0  0
  2  8  1  0  0  0
  3  9  1  0  0  0
  4 10  1  0  0  0
  5  6  1  0  0  0
  6 15  1  0  0  0
  7 16  1  0  0  0
  8 21  1  0  0  0
  9 22  1  0  0  0
 11 12  1  0  0  0
 11 24  1  0  0  0
 12 25  1  0  0  0
 13 21  1  0  0  0
 14 22  1  0  0  0
 16 17  1  0  0  0
 23 10  1  0  0  0
 23 15  1  0  0  0
  1  2  2  0  0  0
  3  4  2  0  0  0
  5  7  2  0  0  0
  6  8  2  0  0  0
  9 11  2  0  0  0
 10 12  2  0  0  0
 16 18  2  0  0  0
 23 19  2  0  0  0
 23 20  2  0  0  0
M  CHG  2  16   1  17  -1
M  END
> <rmsd>
0.426804453

$$$$
ZINC04819671


 30 32  0  0  0  0  0  0  0  0999 V2000
   -3.1427   -2.8210   -0.3511 C   0  0  0  0  0
   -2.5626   -2.3476    0.8257 C   0  0  0  0  0
   -3.3383   -1.9572   -1.4289 C   0  0  0  0  0
   -3.6052    7.9971    1.6378 C   0  0  0  0  0
   -5.4211    6.4390    1.9720 C   0  0  0  0  0
   -2.1784   -1.0104    0.9249 C   0  0  0  0  0
   -2.9541   -0.6200   -1.3295 C   0  0  0  0  0
    3.0852    0.7359   -0.4436 C   0  0  0  0  0
    2.8644    1.7079    0.5321 C   0  0  0  0  0
   -4.4191    9.0404    2.0787 C   0  0  0  0  0
   -6.2351    7.4823    2.4131 C   0  0  0  0  0
    0.7120    0.2938   -0.5405 C   0  0  0  0  0
   -4.1061    6.6963    1.5843 C   0  0  0  0  0
   -2.3741   -0.1465   -0.1527 C   0  0  0  0  0
    0.4911    1.2657    0.4354 C   0  0  0  0  0
    2.0090    0.0288   -0.9799 C   0  0  0  0  0
    1.5673    1.9728    0.9716 C   0  0  0  0  0
   -5.7341    8.7831    2.4663 C   0  0  0  0  0
   -3.2459    5.5941    1.1194 C   0  0  0  0  0
   -3.0985    2.1593    0.4960 C   0  0  0  0  0
   -1.9571    1.3056   -0.0447 C   0  0  0  0  0
   -3.6716    4.3745    1.0544 N   0  0  0  0  0
   -0.8023    1.4937    0.8381 N   0  0  0  0  0
   -2.7483    3.4943    0.6049 N   0  0  0  0  0
    2.2343   -0.9605   -1.9731 N   0  0  0  0  0
    1.3911    2.8721    1.8705 O   0  0  0  0  0
    3.4089   -1.1832   -2.3542 O   0  0  0  0  0
   -4.2034    1.6998    0.7806 O   0  0  0  0  0
    1.2527   -1.5857   -2.4425 O   0  0  0  0  0
   -6.5153    9.7850    2.8904 F   0  0  0  0  0
  1  2  1  0  0  0
  3  7  1  0  0  0
  4 13  1  0  0  0
  5 11  1  0  0  0
  6 14  1  0  0  0
  8 16  1  0  0  0
  9 17  1  0  0  0
 10 18  1  0  0  0
 12 15  1  0  0  0
 13 19  1  0  0  0
 15 23  1  0  0  0
 16 25  1  0  0  0
 17 26  1  0  0  0
 18 30  1  0  0  0
 20 24  1  0  0  0
 21 14  1  0  0  0
 21 20  1  0  0  0
 21 23  1  0  0  0
 24 22  1  0  0  0
 25 27  1  0  0  0
  1  3  2  0  0  0
  2  6  2  0  0  0
  4 10  2  0  0  0
  5 13  2  0  0  0
  7 14  2  0  0  0
  8  9  2  0  0  0
 11 18  2  0  0  0
 12 16  2  0  0  0
 15 17  2  0  0  0
 19 22  2  0  0  0
 20 28  2  0  0  0
 25 29  2  0  0  0
M  CHG  3  25   1  26  -1  27  -1
M  END
> <rmsd>
0.699197233

$$$$
ZINC04733090


 31 35  0  0  0  0  0  0  0  0999 V2000
   -4.7451   -3.3711   -0.1481 C   0  0  0  0  0
   -2.2907    4.9582   -1.1508 C   0  0  0  0  0
   -5.2810   -2.2753    0.5282 C   0  0  0  0  0
   -3.5954   -3.2182   -0.9232 C   0  0  0  0  0
   -0.9265    4.9893   -0.8621 C   0  0  0  0  0
   -3.0502    3.8387   -0.8107 C   0  0  0  0  0
   -4.6673   -1.0265    0.4295 C   0  0  0  0  0
   -2.9817   -1.9695   -1.0219 C   0  0  0  0  0
   -0.3216    3.9009   -0.2336 C   0  0  0  0  0
   -2.4454    2.7503   -0.1820 C   0  0  0  0  0
   -3.5177   -0.8737   -0.3455 C   0  0  0  0  0
   -1.0809    2.7813    0.1065 C   0  0  0  0  0
    5.6096   -4.1985    0.1300 C   0  0  0  0  0
    4.9485   -4.3590    1.3994 C   0  0  0  0  0
    5.2415   -3.2398   -0.7297 C   0  0  0  0  0
    3.9409   -3.5678    1.7863 C   0  0  0  0  0
    1.0729    1.3332   -1.0816 C   0  0  0  0  0
    2.0821    0.5729   -1.5161 C   0  0  0  0  0
    4.1571   -2.3194   -0.4170 C   0  0  0  0  0
    3.7233   -1.3222   -1.2347 C   0  0  0  0  0
    3.4547   -2.4691    0.9009 C   0  0  0  0  0
    0.5239    1.0154    0.2513 C   0  0  0  0  0
    2.0505   -0.7188    0.4692 C   0  0  0  0  0
   -3.2804    1.6016    0.1544 C   0  0  0  0  0
    2.4776   -1.7243    1.3086 N   0  0  0  0  0
    1.0626   -0.0239    0.9681 N   0  0  0  0  0
    2.6390   -0.4877   -0.7946 N   0  0  0  0  0
   -2.8941    0.3956   -0.4455 N   0  0  0  0  0
   -0.4456    1.6970    0.7416 N   0  0  0  0  0
    4.1663   -1.0172   -2.3813 O   0  0  0  0  0
   -4.2695    1.7145    0.8873 O   0  0  0  0  0
  1  3  1  0  0  0
  2  5  1  0  0  0
  4  8  1  0  0  0
  6 10  1  0  0  0
  7 11  1  0  0  0
  9 12  1  0  0  0
 10 24  1  0  0  0
 11 28  1  0  0  0
 12 29  1  0  0  0
 13 14  1  0  0  0
 15 19  1  0  0  0
 16 21  1  0  0  0
 17 22  1  0  0  0
 18 27  1  0  0  0
 19 20  1  0  0  0
 19 21  1  0  0  0
 20 27  1  0  0  0
 22 26  1  0  0  0
 23 25  1  0  0  0
 23 27  1  0  0  0
 24 28  1  0  0  0
  1  4  2  0  0  0
  2  6  2  0  0  0
  3  7  2  0  0  0
  5  9  2  0  0  0
  8 11  2  0  0  0
 10 12  2  0  0  0
 13 15  2  0  0  0
 14 16  2  0  0  0
 17 18  2  0  0  0
 20 30  2  0  0  0
 21 25  2  0  0  0
 22 29  2  0  0  0
 23 26  2  0  0  0
 24 31  2  0  0  0
M  CHG  2  29   1  30  -1
M  END
> <rmsd>
0.612697661

$$$$
ZINC64580574


 28 30  0  0  0  0  0  0  0  0999 V2000
    1.0216    2.8836   -2.1899 C   0  0  0  0  0
   -0.0379    2.7665   -1.2903 C   0  0  0  0  0
   -3.2444   -2.5885    0.4335 C   0  0  0  0  0
   -2.4196   -2.2387   -1.8103 C   0  0  0  0  0
   -3.2078   -1.2129    0.6614 C   0  0  0  0  0
   -2.3831   -0.8630   -1.5823 C   0  0  0  0  0
    0.9956    0.8061   -0.3283 C   0  0  0  0  0
    2.0550    0.9231   -1.2281 C   0  0  0  0  0
    2.0680    1.9618   -2.1589 C   0  0  0  0  0
   -0.0509    1.7278   -0.3594 C   0  0  0  0  0
   -2.8502   -3.1014   -0.8023 C   0  0  0  0  0
   -2.7772   -0.3502   -0.3465 C   0  0  0  0  0
    3.1489   -0.0650   -1.1739 C   0  0  0  0  0
    4.2719    2.9150   -2.6647 C   0  0  0  0  0
    2.8452    2.0453   -4.5096 C   0  0  0  0  0
    5.5183    2.5113   -3.4406 C   0  0  0  0  0
    4.0955    1.6480   -5.2839 C   0  0  0  0  0
    6.1089    2.4550   -7.2100 C   0  0  0  0  0
    6.4546    2.3134   -5.7438 C   0  0  0  0  0
    3.1216    2.0967   -3.0704 N   0  0  0  0  0
   -1.1356    1.6084    0.5613 N   0  0  0  0  0
    5.2264    2.5747   -4.9183 N   0  0  0  0  0
    3.0529   -1.1310   -1.8874 O   0  0  0  0  0
    4.1594    0.1750   -0.4149 O   0  0  0  0  0
   -3.6864    1.6726    0.9980 O   0  0  0  0  0
   -2.8579    2.0604   -1.3393 O   0  0  0  0  0
   -2.8840   -4.4225   -1.0207 F   0  0  0  0  0
   -2.7295    1.3953   -0.0570 S   0  0  0  0  0
  1  9  1  0  0  0
  2 10  1  0  0  0
  3 11  1  0  0  0
  4  6  1  0  0  0
  5 12  1  0  0  0
  7  8  1  0  0  0
  8 13  1  0  0  0
  9 20  1  0  0  0
 10 21  1  0  0  0
 11 27  1  0  0  0
 13 23  1  0  0  0
 14 16  1  0  0  0
 14 20  1  0  0  0
 15 17  1  0  0  0
 15 20  1  0  0  0
 16 22  1  0  0  0
 17 22  1  0  0  0
 18 19  1  0  0  0
 19 22  1  0  0  0
 28 12  1  0  0  0
 28 21  1  0  0  0
  1  2  2  0  0  0
  3  5  2  0  0  0
  4 11  2  0  0  0
  6 12  2  0  0  0
  7 10  2  0  0  0
  8  9  2  0  0  0
 13 24  2  0  0  0
 28 25  2  0  0  0
 28 26  2  0  0  0
M  CHG  2  22   1  23  -1
M  END
> <rmsd>
0.707329512

$$$$
ZINC64580574


 28 30  0  0  0  0  0  0  0  0999 V2000
    0.8693    2.5244   -2.5707 C   0  0  0  0  0
   -0.1066    2.5010   -1.5744 C   0  0  0  0  0
   -3.5396   -2.5662    0.5394 C   0  0  0  0  0
   -2.9052   -2.3075   -1.7774 C   0  0  0  0  0
   -3.3758   -1.1952    0.7373 C   0  0  0  0  0
   -2.7415   -0.9365   -1.5795 C   0  0  0  0  0
    0.8587    0.4765   -0.6764 C   0  0  0  0  0
    1.8346    0.4998   -1.6728 C   0  0  0  0  0
    1.8398    1.5238   -2.6199 C   0  0  0  0  0
   -0.1120    1.4771   -0.6272 C   0  0  0  0  0
   -3.3042   -3.1224   -0.7179 C   0  0  0  0  0
   -2.9769   -0.3804   -0.3221 C   0  0  0  0  0
    2.8493   -0.5703   -1.7022 C   0  0  0  0  0
    4.0531    2.2954   -3.3462 C   0  0  0  0  0
    2.3963    1.5194   -5.0339 C   0  0  0  0  0
    5.1861    1.7863   -4.2269 C   0  0  0  0  0
    3.5338    1.0165   -5.9136 C   0  0  0  0  0
    5.4131    1.6412   -8.0332 C   0  0  0  0  0
    5.8833    1.4896   -6.6031 C   0  0  0  0  0
    2.8102    1.5652   -3.6278 N   0  0  0  0  0
   -1.1111    1.4535    0.3924 N   0  0  0  0  0
    4.7621    1.8558   -5.6720 N   0  0  0  0  0
    2.6046   -1.6335   -2.3836 O   0  0  0  0  0
    3.9423   -0.4018   -1.0450 O   0  0  0  0  0
   -3.5969    1.7226    1.0632 O   0  0  0  0  0
   -2.9648    2.0177   -1.3479 O   0  0  0  0  0
   -3.4601   -4.4392   -0.9076 F   0  0  0  0  0
   -2.7678    1.3591   -0.0709 S   0  0  0  0  0
  1  9  1  0  0  0
  2 10  1  0  0  0
  3 11  1  0  0  0
  4  6  1  0  0  0
  5 12  1  0  0  0
  7  8  1  0  0  0
  8 13  1  0  0  0
  9 20  1  0  0  0
 10 21  1  0  0  0
 11 27  1  0  0  0
 13 23  1  0  0  0
 14 16  1  0  0  0
 14 20  1  0  0  0
 15 17  1  0  0  0
 15 20  1  0  0  0
 16 22  1  0  0  0
 17 22  1  0  0  0
 18 19  1  0  0  0
 19 22  1  0  0  0
 28 12  1  0  0  0
 28 21  1  0  0  0
  1  2  2  0  0  0
  3  5  2  0  0  0
  4 11  2  0  0  0
  6 12  2  0  0  0
  7 10  2  0  0  0
  8  9  2  0  0  0
 13 24  2  0  0  0
 28 25  2  0  0  0
 28 26  2  0  0  0
M  CHG  2  22   1  23  -1
M  END
> <rmsd>
0.526287615

$$$$
ZINC15776781


 29 29  0  0  0  0  0  0  0  0999 V2000
   -3.3034   -3.2334   -0.1256 C   0  0  0  0  0
   -1.9640   -2.8637   -0.0046 C   0  0  0  0  0
   -4.2171   -2.3608   -0.7167 C   0  0  0  0  0
   -1.5381   -1.6214   -0.4746 C   0  0  0  0  0
   -3.7914   -1.1185   -1.1867 C   0  0  0  0  0
   -2.4519   -0.7487   -1.0657 C   0  0  0  0  0
    0.1558    1.9010    0.5673 C   0  0  0  0  0
    2.5809   -0.1567    1.0098 C   0  0  0  0  0
    1.1953    2.1896    4.3141 C   0  0  0  0  0
    3.6865   -1.1811   -1.7354 C   0  0  0  0  0
   -3.4918    2.0027   -0.0904 C   0  0  0  0  0
   -5.6773    2.5741   -0.7941 C   0  0  0  0  0
   -1.9904    0.5981   -1.5750 C   0  0  0  0  0
    0.8731    2.5918    2.8692 C   0  0  0  0  0
    4.3105   -1.3685   -0.3467 C   0  0  0  0  0
    0.8876    1.4702    1.8332 C   0  0  0  0  0
    4.0607   -0.2646    0.6784 C   0  0  0  0  0
   -2.0628    1.7335   -0.5432 C   0  0  0  0  0
    2.2332    1.1127    1.4473 N   0  0  0  0  0
   -1.1706    1.4922    0.5667 N   0  0  0  0  0
    4.8368   -0.5731    1.9157 N   0  0  0  0  0
    1.2430    3.1621    5.1221 O   0  0  0  0  0
    3.9986   -2.0807   -2.5685 O   0  0  0  0  0
    0.7063    2.4996   -0.3545 O   0  0  0  0  0
    1.8055   -1.1040    0.9013 O   0  0  0  0  0
    1.3821    0.9612    4.5306 O   0  0  0  0  0
    2.9545   -0.1658   -1.8917 O   0  0  0  0  0
   -3.8414    1.9166    1.0823 O   0  0  0  0  0
   -4.3093    2.3239   -1.1321 O   0  0  0  0  0
  1  2  1  0  0  0
  3  5  1  0  0  0
  4  6  1  0  0  0
  7 20  1  0  0  0
  8 19  1  0  0  0
  9 22  1  0  0  0
 10 23  1  0  0  0
 11 29  1  0  0  0
 12 29  1  0  0  0
 13  6  1  0  0  0
 13 18  1  0  0  0
 14  9  1  0  0  0
 14 16  1  0  0  0
 15 10  1  0  0  0
 15 17  1  0  0  0
 16  7  1  0  0  0
 16 19  1  0  0  0
 17  8  1  0  0  0
 17 21  1  0  0  0
 18 11  1  0  0  0
 18 20  1  0  0  0
  1  3  2  0  0  0
  2  4  2  0  0  0
  5  6  2  0  0  0
  7 24  2  0  0  0
  8 25  2  0  0  0
  9 26  2  0  0  0
 10 27  2  0  0  0
 11 28  2  0  0  0
M  CHG  3  21   1  22  -1  23  -1
M  END
> <rmsd>
0.690344572

$$$$
ZINC16925130


 27 29  0  0  0  0  0  0  0  0999 V2000
   -3.5854   -1.0595    0.5018 C   0  0  0  0  0
   -4.7937   -1.2945   -1.5772 C   0  0  0  0  0
   -3.7837   -2.4138    0.7702 C   0  0  0  0  0
   -4.9920   -2.6489   -1.3088 C   0  0  0  0  0
    1.3788   -1.6176    0.3167 C   0  0  0  0  0
   -4.0905   -0.4998   -0.6719 C   0  0  0  0  0
   -4.4870   -3.2086   -0.1351 C   0  0  0  0  0
    1.5815   -1.0121   -0.9057 C   0  0  0  0  0
    0.1572    0.4243   -0.0584 C   0  0  0  0  0
   -3.7729    1.8405    0.0790 C   0  0  0  0  0
   -3.8043    1.3776   -2.2510 C   0  0  0  0  0
   -0.9777    2.5680   -0.7355 C   0  0  0  0  0
    3.8785   -0.9314   -1.8058 C   0  0  0  0  0
   -3.4110    3.2085   -0.4505 C   0  0  0  0  0
    2.4680   -1.5082   -1.9769 C   0  0  0  0  0
   -1.9667    3.5459   -0.1189 C   0  0  0  0  0
    0.8816    0.1586   -1.1229 N   0  0  0  0  0
   -3.8851    0.8974   -0.9493 N   0  0  0  0  0
   -0.7071    1.5260    0.1467 N   0  0  0  0  0
    4.4725   -1.2694   -0.7430 O   0  0  0  0  0
   -3.9536    1.6663    1.2821 O   0  0  0  0  0
   -3.7807    0.7648   -3.3081 O   0  0  0  0  0
   -0.5179    2.7306   -1.8609 O   0  0  0  0  0
    4.2744   -0.1904   -2.7497 O   0  0  0  0  0
   -4.6771   -4.5090    0.1222 F   0  0  0  0  0
    0.2702   -0.6911    1.2408 S   0  0  0  0  0
   -3.6564    3.1261   -2.2339 S   0  0  0  0  0
  1  3  1  0  0  0
  2  6  1  0  0  0
  4  7  1  0  0  0
  5 26  1  0  0  0
  6 18  1  0  0  0
  7 25  1  0  0  0
  8 17  1  0  0  0
  9 19  1  0  0  0
  9 26  1  0  0  0
 10 18  1  0  0  0
 11 18  1  0  0  0
 11 27  1  0  0  0
 12 19  1  0  0  0
 13 20  1  0  0  0
 14 10  1  0  0  0
 14 16  1  0  0  0
 14 27  1  0  0  0
 15  8  1  0  0  0
 15 13  1  0  0  0
 16 12  1  0  0  0
  1  6  2  0  0  0
  2  4  2  0  0  0
  3  7  2  0  0  0
  5  8  2  0  0  0
  9 17  2  0  0  0
 10 21  2  0  0  0
 11 22  2  0  0  0
 12 23  2  0  0  0
 13 24  2  0  0  0
M  CHG  1  20  -1
M  END
> <rmsd>
0.541914701

$$$$
ZINC52773503


 30 32  0  0  0  0  0  0  0  0999 V2000
    5.6189   -0.6374    2.3417 C   0  0  0  0  0
    6.4427   -1.1344    1.3318 C   0  0  0  0  0
   -5.3954   -2.1565   -0.4241 C   0  0  0  0  0
    4.5052    0.1367    2.0156 C   0  0  0  0  0
   -4.9389   -1.1539    0.4316 C   0  0  0  0  0
    6.1530   -0.8573   -0.0042 C   0  0  0  0  0
   -4.5065   -3.1130   -0.9145 C   0  0  0  0  0
   -2.2569    3.0195   -0.0001 C   0  0  0  0  0
   -3.6571    3.0343    0.1450 C   0  0  0  0  0
    4.2155    0.4137    0.6796 C   0  0  0  0  0
   -3.5935   -1.1078    0.7968 C   0  0  0  0  0
    5.0394   -0.0833   -0.3303 C   0  0  0  0  0
   -3.1611   -3.0670   -0.5494 C   0  0  0  0  0
   -2.7046   -2.0644    0.3064 C   0  0  0  0  0
   -1.8632    1.8420    0.5874 C   0  0  0  0  0
    3.0414    1.2267    0.3828 C   0  0  0  0  0
    1.7704    0.8980    0.6971 C   0  0  0  0  0
    0.6381    1.8047    0.3351 C   0  0  0  0  0
   -2.8512   -4.9960   -1.9052 C   0  0  0  0  0
   -1.0111   -2.7461    1.8305 C   0  0  0  0  0
   -3.1195   -0.0187    1.7207 C   0  0  0  0  0
   -4.1217    1.9519    0.7750 N   0  0  0  0  0
   -3.0071    1.2461    1.0309 N   0  0  0  0  0
   -0.5760    1.2740    0.7512 N   0  0  0  0  0
    4.7739    0.1828   -1.7036 N   0  0  0  0  0
    4.0446   -0.6105   -2.3428 O   0  0  0  0  0
    0.8321    2.8633   -0.2511 O   0  0  0  0  0
    5.2774    1.2024   -2.2299 O   0  0  0  0  0
   -2.3034   -4.0061   -1.0367 O   0  0  0  0  0
   -1.3885   -2.0232    0.6612 O   0  0  0  0  0
  1  2  1  0  0  0
  3  5  1  0  0  0
  4 10  1  0  0  0
  6 12  1  0  0  0
  7 13  1  0  0  0
  8  9  1  0  0  0
 10 16  1  0  0  0
 11 14  1  0  0  0
 12 25  1  0  0  0
 13 29  1  0  0  0
 14 30  1  0  0  0
 15 23  1  0  0  0
 15 24  1  0  0  0
 17 18  1  0  0  0
 18 24  1  0  0  0
 19 29  1  0  0  0
 20 30  1  0  0  0
 21 11  1  0  0  0
 21 23  1  0  0  0
 23 22  1  0  0  0
 25 26  1  0  0  0
  1  4  2  0  0  0
  2  6  2  0  0  0
  3  7  2  0  0  0
  5 11  2  0  0  0
  8 15  2  0  0  0
  9 22  2  0  0  0
 10 12  2  0  0  0
 13 14  2  0  0  0
 16 17  2  0  0  0
 18 27  2  0  0  0
 25 28  2  0  0  0
M  CHG  2  25   1  26  -1
M  END
> <rmsd>
0.56836623

$$$$
ZINC64683689


 30 32  0  0  0  0  0  0  0  0999 V2000
   -6.1859    2.0525   -4.0666 C   0  0  0  0  0
   -6.1144    3.4291   -3.8540 C   0  0  0  0  0
   -6.0176    1.1720   -2.9979 C   0  0  0  0  0
   -5.8744    3.9255   -2.5726 C   0  0  0  0  0
   -5.7776    1.6683   -1.7165 C   0  0  0  0  0
   -5.7060    3.0450   -1.5039 C   0  0  0  0  0
   -3.3197   -2.2756    0.7783 C   0  0  0  0  0
   -4.5532   -2.1715    0.0122 C   0  0  0  0  0
   -2.1133   -2.1387    0.2025 C   0  0  0  0  0
   -4.5834   -1.9345   -1.3108 C   0  0  0  0  0
   -2.0519   -1.8841   -1.2036 C   0  0  0  0  0
   -1.0703   -1.6959   -2.0974 C   0  0  0  0  0
   -3.2924   -1.7762   -1.9949 C   0  0  0  0  0
   -3.2348    2.7063    0.6559 C   0  0  0  0  0
    2.4924   -0.2875   -1.3703 C   0  0  0  0  0
   -0.4285    1.4878   -0.5542 C   0  0  0  0  0
   -1.6268   -1.4629   -3.4793 C   0  0  0  0  0
   -3.4772    5.0592   -0.1730 C   0  0  0  0  0
   -5.4475    3.5791   -0.1248 C   0  0  0  0  0
    0.3991   -1.6954   -1.8711 C   0  0  0  0  0
   -1.7684    3.0368    0.8713 C   0  0  0  0  0
    0.9680   -0.2971   -1.5877 C   0  0  0  0  0
   -3.0770   -1.5477   -3.2321 N   0  0  0  0  0
   -0.9619    1.8537    0.6787 N   0  0  0  0  0
    0.3041    0.3095   -0.4541 N   0  0  0  0  0
   -4.0232    3.7407    0.1396 N   0  0  0  0  0
    3.1539   -1.1730   -1.9797 O   0  0  0  0  0
   -3.6759    1.5861    0.9264 O   0  0  0  0  0
    2.9020    0.6197   -0.5885 O   0  0  0  0  0
   -0.5838    2.1231   -1.5961 O   0  0  0  0  0
  1  2  1  0  0  0
  3  5  1  0  0  0
  4  6  1  0  0  0
  7  8  1  0  0  0
  9 11  1  0  0  0
 10 13  1  0  0  0
 11 13  1  0  0  0
 14 26  1  0  0  0
 15 27  1  0  0  0
 16 24  1  0  0  0
 16 25  1  0  0  0
 17 12  1  0  0  0
 17 23  1  0  0  0
 18 26  1  0  0  0
 19  6  1  0  0  0
 19 26  1  0  0  0
 20 12  1  0  0  0
 20 22  1  0  0  0
 21 14  1  0  0  0
 21 24  1  0  0  0
 22 15  1  0  0  0
 22 25  1  0  0  0
  1  3  2  0  0  0
  2  4  2  0  0  0
  5  6  2  0  0  0
  7  9  2  0  0  0
  8 10  2  0  0  0
 11 12  2  0  0  0
 13 23  2  0  0  0
 14 28  2  0  0  0
 15 29  2  0  0  0
 16 30  2  0  0  0
M  CHG  2  23   1  27  -1
M  END
> <rmsd>
0.563805759

$$$$
ZINC35397393


 28 29  0  0  0  0  0  0  0  0999 V2000
   -2.7568   -2.6322    0.5033 C   0  0  0  0  0
   -2.8778   -3.1084   -0.8021 C   0  0  0  0  0
    1.0033    0.7875   -0.3137 C   0  0  0  0  0
   -2.9052   -0.8380   -1.6279 C   0  0  0  0  0
    0.0026    2.7130   -1.2873 C   0  0  0  0  0
    2.0527    0.9135   -1.2172 C   0  0  0  0  0
   -2.7101   -1.2588    0.7432 C   0  0  0  0  0
   -0.0451    1.7004   -0.3429 C   0  0  0  0  0
   -2.9520   -2.2113   -1.8677 C   0  0  0  0  0
   -2.7842   -0.3618   -0.3224 C   0  0  0  0  0
    2.0064    1.9613   -2.1226 C   0  0  0  0  0
    3.1622   -0.0548   -1.1843 C   0  0  0  0  0
   -2.5795   -0.7820    2.1527 C   0  0  0  0  0
    4.2356    4.8196   -2.5950 C   0  0  0  0  0
    1.8806    0.6012   -6.3741 C   0  0  0  0  0
    5.0042    3.6067   -3.1002 C   0  0  0  0  0
    2.1511    0.6952   -4.8793 C   0  0  0  0  0
    4.4190    2.2901   -2.6038 C   0  0  0  0  0
    2.7870    2.0208   -4.4780 C   0  0  0  0  0
    1.0050    2.8676   -2.1811 N   0  0  0  0  0
   -1.1347    1.5973    0.5699 N   0  0  0  0  0
    3.0638    2.0949   -3.0390 N   0  0  0  0  0
    3.0757   -1.1193   -1.9031 O   0  0  0  0  0
    4.1804    0.1962   -0.4377 O   0  0  0  0  0
   -3.6899    1.6838    0.9896 O   0  0  0  0  0
   -2.8432    2.0362   -1.3467 O   0  0  0  0  0
   -3.0683   -2.6688   -3.1214 F   0  0  0  0  0
   -2.7276    1.3869   -0.0552 S   0  0  0  0  0
  1  7  1  0  0  0
  2  9  1  0  0  0
  3  8  1  0  0  0
  4 10  1  0  0  0
  5 20  1  0  0  0
  6 11  1  0  0  0
  6 12  1  0  0  0
  8 21  1  0  0  0
  9 27  1  0  0  0
 11 22  1  0  0  0
 12 23  1  0  0  0
 13  7  1  0  0  0
 14 16  1  0  0  0
 15 17  1  0  0  0
 16 18  1  0  0  0
 17 19  1  0  0  0
 18 22  1  0  0  0
 19 22  1  0  0  0
 28 10  1  0  0  0
 28 21  1  0  0  0
  1  2  2  0  0  0
  3  6  2  0  0  0
  4  9  2  0  0  0
  5  8  2  0  0  0
  7 10  2  0  0  0
 11 20  2  0  0  0
 12 24  2  0  0  0
 28 25  2  0  0  0
 28 26  2  0  0  0
M  CHG  1  23  -1
M  END
> <rmsd>
0.692105532

$$$$
ZINC35397393


 28 29  0  0  0  0  0  0  0  0999 V2000
   -3.0526   -2.6476    0.5634 C   0  0  0  0  0
   -3.3315   -3.1275   -0.7162 C   0  0  0  0  0
    0.8672    0.4568   -0.6605 C   0  0  0  0  0
   -3.2608   -0.8714   -1.5778 C   0  0  0  0  0
   -0.0686    2.4439   -1.5730 C   0  0  0  0  0
    1.8341    0.4899   -1.6592 C   0  0  0  0  0
   -2.8778   -1.2795    0.7725 C   0  0  0  0  0
   -0.1058    1.4488   -0.6096 C   0  0  0  0  0
   -3.4356   -2.2394   -1.7868 C   0  0  0  0  0
   -2.9818   -0.3916   -0.2981 C   0  0  0  0  0
    1.7843    1.5278   -2.5758 C   0  0  0  0  0
    2.8638   -0.5621   -1.7111 C   0  0  0  0  0
   -2.5795   -0.7986    2.1549 C   0  0  0  0  0
    4.1733    4.1968   -3.3049 C   0  0  0  0  0
    1.1569    0.1340   -6.7716 C   0  0  0  0  0
    4.7954    2.9217   -3.8563 C   0  0  0  0  0
    1.5724    0.2234   -5.3101 C   0  0  0  0  0
    4.1595    1.6607   -3.2837 C   0  0  0  0  0
    2.3435    1.4993   -4.9939 C   0  0  0  0  0
    0.8547    2.5092   -2.5583 N   0  0  0  0  0
   -1.1099    1.4419    0.4016 N   0  0  0  0  0
    2.7585    1.5676   -3.5882 N   0  0  0  0  0
    2.6286   -1.6246   -2.3989 O   0  0  0  0  0
    3.9637   -0.3835   -1.0665 O   0  0  0  0  0
   -3.6004    1.7335    1.0539 O   0  0  0  0  0
   -2.9512    1.9921   -1.3567 O   0  0  0  0  0
   -3.7035   -2.7004   -3.0157 F   0  0  0  0  0
   -2.7658    1.3502   -0.0696 S   0  0  0  0  0
  1  7  1  0  0  0
  2  9  1  0  0  0
  3  8  1  0  0  0
  4 10  1  0  0  0
  5 20  1  0  0  0
  6 11  1  0  0  0
  6 12  1  0  0  0
  8 21  1  0  0  0
  9 27  1  0  0  0
 11 22  1  0  0  0
 12 23  1  0  0  0
 13  7  1  0  0  0
 14 16  1  0  0  0
 15 17  1  0  0  0
 16 18  1  0  0  0
 17 19  1  0  0  0
 18 22  1  0  0  0
 19 22  1  0  0  0
 28 10  1  0  0  0
 28 21  1  0  0  0
  1  2  2  0  0  0
  3  6  2  0  0  0
  4  9  2  0  0  0
  5  8  2  0  0  0
  7 10  2  0  0  0
 11 20  2  0  0  0
 12 24  2  0  0  0
 28 25  2  0  0  0
 28 26  2  0  0  0
M  CHG  1  23  -1
M  END
> <rmsd>
0.512125552

$$$$
ZINC12742911


 29 31  0  0  0  0  0  0  0  0999 V2000
   -7.9493    4.5728    1.2093 C   0  0  0  0  0
   -7.3904    3.3143    1.4309 C   0  0  0  0  0
   -3.6541   -2.7351    0.4739 C   0  0  0  0  0
   -2.3521   -2.7953   -0.0230 C   0  0  0  0  0
   -7.1512    5.6186    0.7454 C   0  0  0  0  0
   -4.5802   -1.8646   -0.1006 C   0  0  0  0  0
   -6.0333    3.1014    1.1886 C   0  0  0  0  0
   -2.9024   -1.1142   -1.6687 C   0  0  0  0  0
   -1.9763   -1.9849   -1.0943 C   0  0  0  0  0
   -4.2044   -1.0541   -1.1719 C   0  0  0  0  0
   -5.7942    5.4057    0.5031 C   0  0  0  0  0
   -5.2352    4.1471    0.7246 C   0  0  0  0  0
   -0.6296   -2.0469   -1.6072 C   0  0  0  0  0
    1.4820   -1.6387   -1.8964 C   0  0  0  0  0
   -0.3410    1.0105   -0.5852 C   0  0  0  0  0
   -3.1611    2.7194    0.6574 C   0  0  0  0  0
   -5.1954   -0.1239   -1.7856 C   0  0  0  0  0
   -4.0989    7.1517    1.1065 C   0  0  0  0  0
   -4.9634    6.5442    0.0064 C   0  0  0  0  0
    0.3140   -0.2714   -0.1170 C   0  0  0  0  0
   -1.7026    2.9016    0.2846 C   0  0  0  0  0
   -0.2010   -2.8418   -2.5617 N   0  0  0  0  0
    1.1424   -2.5821   -2.7456 N   0  0  0  0  0
    0.3970   -1.2720   -1.1594 N   0  0  0  0  0
   -3.8605    3.9110    0.4852 N   0  0  0  0  0
   -0.9916    1.6559    0.4564 N   0  0  0  0  0
   -0.2934    1.4104   -1.7454 O   0  0  0  0  0
   -3.6084    1.6433    1.0410 O   0  0  0  0  0
    3.0306   -0.9672   -1.7251 S   0  0  0  0  0
  1  2  1  0  0  0
  3  6  1  0  0  0
  4  9  1  0  0  0
  5 11  1  0  0  0
  7 12  1  0  0  0
  8 10  1  0  0  0
  9 13  1  0  0  0
 12 25  1  0  0  0
 13 24  1  0  0  0
 14 23  1  0  0  0
 14 24  1  0  0  0
 15 26  1  0  0  0
 16 25  1  0  0  0
 17 10  1  0  0  0
 18 19  1  0  0  0
 19 11  1  0  0  0
 20 15  1  0  0  0
 20 24  1  0  0  0
 21 16  1  0  0  0
 21 26  1  0  0  0
 22 23  1  0  0  0
  1  5  2  0  0  0
  2  7  2  0  0  0
  3  4  2  0  0  0
  6 10  2  0  0  0
  8  9  2  0  0  0
 11 12  2  0  0  0
 13 22  2  0  0  0
 14 29  2  0  0  0
 15 27  2  0  0  0
 16 28  2  0  0  0
M  CHG  1  29  -1
M  END
> <rmsd>
0.539550662

$$$$
ZINC12742911


 29 31  0  0  0  0  0  0  0  0999 V2000
   -7.6161    4.1306   -1.5326 C   0  0  0  0  0
   -7.2116    2.9886   -0.8412 C   0  0  0  0  0
   -4.2598   -0.9500   -0.8315 C   0  0  0  0  0
   -3.0004   -0.9886   -1.4298 C   0  0  0  0  0
   -6.6950    5.1405   -1.8105 C   0  0  0  0  0
   -4.5637   -1.8254    0.2111 C   0  0  0  0  0
   -5.8861    2.8565   -0.4278 C   0  0  0  0  0
   -2.3490   -2.7781    0.0569 C   0  0  0  0  0
   -2.0450   -1.9027   -0.9857 C   0  0  0  0  0
   -3.6084   -2.7395    0.6552 C   0  0  0  0  0
   -5.3694    5.0084   -1.3969 C   0  0  0  0  0
   -4.9649    3.8666   -0.7056 C   0  0  0  0  0
   -0.7430   -1.9428   -1.6052 C   0  0  0  0  0
    1.3453   -1.5349   -2.0316 C   0  0  0  0  0
   -0.3341    1.0388   -0.4141 C   0  0  0  0  0
   -3.0724    2.6410    0.4173 C   0  0  0  0  0
   -3.9341   -3.6749    1.7703 C   0  0  0  0  0
   -4.1104    6.9792   -0.4927 C   0  0  0  0  0
   -4.4044    6.1062   -1.7084 C   0  0  0  0  0
    0.3374   -0.2765   -0.0820 C   0  0  0  0  0
   -1.5982    2.8809    0.6794 C   0  0  0  0  0
   -0.4006   -2.6773   -2.6394 N   0  0  0  0  0
    0.9280   -2.4179   -2.9106 N   0  0  0  0  0
    0.3257   -1.2077   -1.1900 N   0  0  0  0  0
   -3.6247    3.7139   -0.2772 N   0  0  0  0  0
   -0.8932    1.6204    0.7145 N   0  0  0  0  0
   -0.3711    1.5131   -1.5463 O   0  0  0  0  0
   -3.6432    1.6178    0.7816 O   0  0  0  0  0
    2.9115   -0.8895   -1.9389 S   0  0  0  0  0
  1  2  1  0  0  0
  3  6  1  0  0  0
  4  9  1  0  0  0
  5 11  1  0  0  0
  7 12  1  0  0  0
  8 10  1  0  0  0
  9 13  1  0  0  0
 12 25  1  0  0  0
 13 24  1  0  0  0
 14 23  1  0  0  0
 14 24  1  0  0  0
 15 26  1  0  0  0
 16 25  1  0  0  0
 17 10  1  0  0  0
 18 19  1  0  0  0
 19 11  1  0  0  0
 20 15  1  0  0  0
 20 24  1  0  0  0
 21 16  1  0  0  0
 21 26  1  0  0  0
 22 23  1  0  0  0
  1  5  2  0  0  0
  2  7  2  0  0  0
  3  4  2  0  0  0
  6 10  2  0  0  0
  8  9  2  0  0  0
 11 12  2  0  0  0
 13 22  2  0  0  0
 14 29  2  0  0  0
 15 27  2  0  0  0
 16 28  2  0  0  0
M  CHG  1  29  -1
M  END
> <rmsd>
0.498677194

$$$$
ZINC17902793


 29 31  0  0  0  0  0  0  0  0999 V2000
   -7.6158    4.1319   -1.5319 C   0  0  0  0  0
   -7.2115    2.9897   -0.8409 C   0  0  0  0  0
   -2.3489   -2.7777    0.0566 C   0  0  0  0  0
   -3.0016   -0.9887   -1.4302 C   0  0  0  0  0
   -6.6945    5.1418   -1.8094 C   0  0  0  0  0
   -3.6082   -2.7395    0.6552 C   0  0  0  0  0
   -4.2608   -0.9506   -0.8317 C   0  0  0  0  0
   -5.8860    2.8573   -0.4274 C   0  0  0  0  0
   -2.0456   -1.9022   -0.9861 C   0  0  0  0  0
   -4.5642   -1.8261    0.2111 C   0  0  0  0  0
   -5.3689    5.0094   -1.3959 C   0  0  0  0  0
   -4.9647    3.8672   -0.7048 C   0  0  0  0  0
   -0.7434   -1.9423   -1.6057 C   0  0  0  0  0
    1.3450   -1.5347   -2.0317 C   0  0  0  0  0
   -0.3343    1.0389   -0.4137 C   0  0  0  0  0
   -3.0724    2.6411    0.4179 C   0  0  0  0  0
   -5.9106   -1.7851    0.8513 C   0  0  0  0  0
   -4.1098    6.9798   -0.4909 C   0  0  0  0  0
   -4.4038    6.1071   -1.7069 C   0  0  0  0  0
    0.3372   -0.2766   -0.0819 C   0  0  0  0  0
   -1.5981    2.8808    0.6802 C   0  0  0  0  0
   -0.4009   -2.6766   -2.6400 N   0  0  0  0  0
    0.9278   -2.4172   -2.9111 N   0  0  0  0  0
    0.3253   -1.2075   -1.1903 N   0  0  0  0  0
   -3.6245    3.7143   -0.2763 N   0  0  0  0  0
   -0.8934    1.6203    0.7150 N   0  0  0  0  0
   -0.3710    1.5135   -1.5458 O   0  0  0  0  0
   -3.6433    1.6179    0.7819 O   0  0  0  0  0
    2.9113   -0.8894   -1.9388 S   0  0  0  0  0
  1  2  1  0  0  0
  3  9  1  0  0  0
  4  7  1  0  0  0
  5 11  1  0  0  0
  6 10  1  0  0  0
  8 12  1  0  0  0
  9 13  1  0  0  0
 12 25  1  0  0  0
 13 24  1  0  0  0
 14 23  1  0  0  0
 14 24  1  0  0  0
 15 26  1  0  0  0
 16 25  1  0  0  0
 17 10  1  0  0  0
 18 19  1  0  0  0
 19 11  1  0  0  0
 20 15  1  0  0  0
 20 24  1  0  0  0
 21 16  1  0  0  0
 21 26  1  0  0  0
 22 23  1  0  0  0
  1  5  2  0  0  0
  2  8  2  0  0  0
  3  6  2  0  0  0
  4  9  2  0  0  0
  7 10  2  0  0  0
 11 12  2  0  0  0
 13 22  2  0  0  0
 14 29  2  0  0  0
 15 27  2  0  0  0
 16 28  2  0  0  0
M  CHG  1  29  -1
M  END
> <rmsd>
0.498912275

$$$$
ZINC12856836


 29 31  0  0  0  0  0  0  0  0999 V2000
   -3.6541   -2.7348    0.4739 C   0  0  0  0  0
   -7.3893    3.3108    1.4302 C   0  0  0  0  0
   -2.3521   -2.7950   -0.0230 C   0  0  0  0  0
   -4.5803   -1.8643   -0.1005 C   0  0  0  0  0
   -7.9504    4.5683    1.2080 C   0  0  0  0  0
   -6.0316    3.1003    1.1886 C   0  0  0  0  0
   -2.9025   -1.1140   -1.6686 C   0  0  0  0  0
   -1.9764   -1.9846   -1.0943 C   0  0  0  0  0
   -4.2045   -1.0538   -1.1718 C   0  0  0  0  0
   -7.1541    5.6153    0.7441 C   0  0  0  0  0
   -5.7965    5.4049    0.5024 C   0  0  0  0  0
   -5.2353    4.1474    0.7246 C   0  0  0  0  0
   -0.6297   -2.0466   -1.6072 C   0  0  0  0  0
    1.4820   -1.6384   -1.8963 C   0  0  0  0  0
   -0.3410    1.0108   -0.5852 C   0  0  0  0  0
   -3.1612    2.7197    0.6574 C   0  0  0  0  0
   -5.1955   -0.1236   -1.7856 C   0  0  0  0  0
   -7.7808    6.9516    0.5133 C   0  0  0  0  0
   -4.9463    6.5317    0.0048 C   0  0  0  0  0
    0.3139   -0.2711   -0.1169 C   0  0  0  0  0
   -1.7027    2.9019    0.2847 C   0  0  0  0  0
   -0.2011   -2.8415   -2.5616 N   0  0  0  0  0
    1.1423   -2.5818   -2.7456 N   0  0  0  0  0
    0.3969   -1.2718   -1.1594 N   0  0  0  0  0
   -3.8606    3.9113    0.4853 N   0  0  0  0  0
   -0.9917    1.6561    0.4565 N   0  0  0  0  0
   -0.2935    1.4107   -1.7453 O   0  0  0  0  0
   -3.6085    1.6436    1.0411 O   0  0  0  0  0
    3.0305   -0.9669   -1.7250 S   0  0  0  0  0
  1  3  1  0  0  0
  2  5  1  0  0  0
  4  9  1  0  0  0
  6 12  1  0  0  0
  7  8  1  0  0  0
  8 13  1  0  0  0
 10 11  1  0  0  0
 12 25  1  0  0  0
 13 24  1  0  0  0
 14 23  1  0  0  0
 14 24  1  0  0  0
 15 26  1  0  0  0
 16 25  1  0  0  0
 17  9  1  0  0  0
 18 10  1  0  0  0
 19 11  1  0  0  0
 20 15  1  0  0  0
 20 24  1  0  0  0
 21 16  1  0  0  0
 21 26  1  0  0  0
 22 23  1  0  0  0
  1  4  2  0  0  0
  2  6  2  0  0  0
  3  8  2  0  0  0
  5 10  2  0  0  0
  7  9  2  0  0  0
 11 12  2  0  0  0
 13 22  2  0  0  0
 14 29  2  0  0  0
 15 27  2  0  0  0
 16 28  2  0  0  0
M  CHG  1  29  -1
M  END
> <rmsd>
0.539550781

$$$$
ZINC12856836


 29 31  0  0  0  0  0  0  0  0999 V2000
   -4.2597   -0.9499   -0.8313 C   0  0  0  0  0
   -7.2101    2.9850   -0.8405 C   0  0  0  0  0
   -3.0003   -0.9885   -1.4296 C   0  0  0  0  0
   -4.5637   -1.8253    0.2112 C   0  0  0  0  0
   -7.6164    4.1255   -1.5331 C   0  0  0  0  0
   -5.8844    2.8555   -0.4265 C   0  0  0  0  0
   -2.3489   -2.7780    0.0571 C   0  0  0  0  0
   -2.0449   -1.9026   -0.9855 C   0  0  0  0  0
   -3.6083   -2.7394    0.6554 C   0  0  0  0  0
   -6.6969    5.1366   -1.8118 C   0  0  0  0  0
   -5.3711    5.0071   -1.3981 C   0  0  0  0  0
   -4.9648    3.8667   -0.7054 C   0  0  0  0  0
   -0.7430   -1.9427   -1.6050 C   0  0  0  0  0
    1.3454   -1.5348   -2.0314 C   0  0  0  0  0
   -0.3341    1.0389   -0.4140 C   0  0  0  0  0
   -3.0724    2.6411    0.4175 C   0  0  0  0  0
   -3.9341   -3.6748    1.7705 C   0  0  0  0  0
   -7.1581    6.3469   -2.5562 C   0  0  0  0  0
   -4.3882    6.0949   -1.6998 C   0  0  0  0  0
    0.3375   -0.2764   -0.0818 C   0  0  0  0  0
   -1.5982    2.8810    0.6796 C   0  0  0  0  0
   -0.4005   -2.6772   -2.6392 N   0  0  0  0  0
    0.9281   -2.4178   -2.9105 N   0  0  0  0  0
    0.3257   -1.2076   -1.1898 N   0  0  0  0  0
   -3.6247    3.7140   -0.2770 N   0  0  0  0  0
   -0.8932    1.6206    0.7147 N   0  0  0  0  0
   -0.3710    1.5132   -1.5461 O   0  0  0  0  0
   -3.6432    1.6179    0.7818 O   0  0  0  0  0
    2.9116   -0.8894   -1.9387 S   0  0  0  0  0
  1  3  1  0  0  0
  2  5  1  0  0  0
  4  9  1  0  0  0
  6 12  1  0  0  0
  7  8  1  0  0  0
  8 13  1  0  0  0
 10 11  1  0  0  0
 12 25  1  0  0  0
 13 24  1  0  0  0
 14 23  1  0  0  0
 14 24  1  0  0  0
 15 26  1  0  0  0
 16 25  1  0  0  0
 17  9  1  0  0  0
 18 10  1  0  0  0
 19 11  1  0  0  0
 20 15  1  0  0  0
 20 24  1  0  0  0
 21 16  1  0  0  0
 21 26  1  0  0  0
 22 23  1  0  0  0
  1  4  2  0  0  0
  2  6  2  0  0  0
  3  8  2  0  0  0
  5 10  2  0  0  0
  7  9  2  0  0  0
 11 12  2  0  0  0
 13 22  2  0  0  0
 14 29  2  0  0  0
 15 27  2  0  0  0
 16 28  2  0  0  0
M  CHG  1  29  -1
M  END
> <rmsd>
0.498677075

$$$$
ZINC12856836


 29 31  0  0  0  0  0  0  0  0999 V2000
   -3.4480   -2.2137    0.9559 C   0  0  0  0  0
   -7.2099    2.9850   -0.8406 C   0  0  0  0  0
   -2.1893   -2.2531    0.3562 C   0  0  0  0  0
   -4.5626   -1.8243    0.2131 C   0  0  0  0  0
   -7.6160    4.1256   -1.5330 C   0  0  0  0  0
   -5.8842    2.8552   -0.4266 C   0  0  0  0  0
   -3.1596   -1.5136   -1.7291 C   0  0  0  0  0
   -2.0451   -1.9031   -0.9863 C   0  0  0  0  0
   -4.4184   -1.4742   -1.1294 C   0  0  0  0  0
   -6.6964    5.1367   -1.8114 C   0  0  0  0  0
   -5.3706    5.0071   -1.3977 C   0  0  0  0  0
   -4.9645    3.8664   -0.7052 C   0  0  0  0  0
   -0.7431   -1.9431   -1.6058 C   0  0  0  0  0
    1.3453   -1.5354   -2.0319 C   0  0  0  0  0
   -0.3340    1.0382   -0.4141 C   0  0  0  0  0
   -3.0722    2.6404    0.4176 C   0  0  0  0  0
   -5.6108   -1.0585   -1.9230 C   0  0  0  0  0
   -7.1575    6.3472   -2.5556 C   0  0  0  0  0
   -4.3876    6.0948   -1.6990 C   0  0  0  0  0
    0.3374   -0.2773   -0.0821 C   0  0  0  0  0
   -1.5980    2.8801    0.6798 C   0  0  0  0  0
   -0.4007   -2.6775   -2.6401 N   0  0  0  0  0
    0.9280   -2.4181   -2.9112 N   0  0  0  0  0
    0.3256   -1.2082   -1.1904 N   0  0  0  0  0
   -3.6244    3.7135   -0.2767 N   0  0  0  0  0
   -0.8931    1.6196    0.7147 N   0  0  0  0  0
   -0.3708    1.5127   -1.5461 O   0  0  0  0  0
   -3.6431    1.6172    0.7816 O   0  0  0  0  0
    2.9116   -0.8901   -1.9390 S   0  0  0  0  0
  1  3  1  0  0  0
  2  5  1  0  0  0
  4  9  1  0  0  0
  6 12  1  0  0  0
  7  8  1  0  0  0
  8 13  1  0  0  0
 10 11  1  0  0  0
 12 25  1  0  0  0
 13 24  1  0  0  0
 14 23  1  0  0  0
 14 24  1  0  0  0
 15 26  1  0  0  0
 16 25  1  0  0  0
 17  9  1  0  0  0
 18 10  1  0  0  0
 19 11  1  0  0  0
 20 15  1  0  0  0
 20 24  1  0  0  0
 21 16  1  0  0  0
 21 26  1  0  0  0
 22 23  1  0  0  0
  1  4  2  0  0  0
  2  6  2  0  0  0
  3  8  2  0  0  0
  5 10  2  0  0  0
  7  9  2  0  0  0
 11 12  2  0  0  0
 13 22  2  0  0  0
 14 29  2  0  0  0
 15 27  2  0  0  0
 16 28  2  0  0  0
M  CHG  1  29  -1
M  END
> <rmsd>
0.498801321

$$$$
ZINC12856836


 29 31  0  0  0  0  0  0  0  0999 V2000
   -4.2043   -1.0545   -1.1736 C   0  0  0  0  0
   -7.3892    3.3110    1.4304 C   0  0  0  0  0
   -2.9017   -1.1142   -1.6688 C   0  0  0  0  0
   -4.5811   -1.8649   -0.1026 C   0  0  0  0  0
   -7.9505    4.5684    1.2081 C   0  0  0  0  0
   -6.0315    3.1006    1.1888 C   0  0  0  0  0
   -2.3528   -2.7948   -0.0223 C   0  0  0  0  0
   -1.9760   -1.9844   -1.0932 C   0  0  0  0  0
   -3.6553   -2.7351    0.4730 C   0  0  0  0  0
   -7.1543    5.6154    0.7440 C   0  0  0  0  0
   -5.7968    5.4051    0.5022 C   0  0  0  0  0
   -5.2354    4.1477    0.7247 C   0  0  0  0  0
   -0.6293   -2.0464   -1.6062 C   0  0  0  0  0
    1.4823   -1.6380   -1.8955 C   0  0  0  0  0
   -0.3409    1.0113   -0.5848 C   0  0  0  0  0
   -3.1612    2.7202    0.6576 C   0  0  0  0  0
   -4.0590   -3.6009    1.6183 C   0  0  0  0  0
   -7.7812    6.9516    0.5129 C   0  0  0  0  0
   -4.9466    6.5319    0.0043 C   0  0  0  0  0
    0.3142   -0.2704   -0.1163 C   0  0  0  0  0
   -1.7026    2.9024    0.2848 C   0  0  0  0  0
   -0.2007   -2.8413   -2.5605 N   0  0  0  0  0
    1.1427   -2.5816   -2.7446 N   0  0  0  0  0
    0.3972   -1.2713   -1.1586 N   0  0  0  0  0
   -3.8606    3.9117    0.4853 N   0  0  0  0  0
   -0.9915    1.6568    0.4568 N   0  0  0  0  0
   -0.2934    1.4109   -1.7450 O   0  0  0  0  0
   -3.6083    1.6441    1.0415 O   0  0  0  0  0
    3.0308   -0.9663   -1.7244 S   0  0  0  0  0
  1  3  1  0  0  0
  2  5  1  0  0  0
  4  9  1  0  0  0
  6 12  1  0  0  0
  7  8  1  0  0  0
  8 13  1  0  0  0
 10 11  1  0  0  0
 12 25  1  0  0  0
 13 24  1  0  0  0
 14 23  1  0  0  0
 14 24  1  0  0  0
 15 26  1  0  0  0
 16 25  1  0  0  0
 17  9  1  0  0  0
 18 10  1  0  0  0
 19 11  1  0  0  0
 20 15  1  0  0  0
 20 24  1  0  0  0
 21 16  1  0  0  0
 21 26  1  0  0  0
 22 23  1  0  0  0
  1  4  2  0  0  0
  2  6  2  0  0  0
  3  8  2  0  0  0
  5 10  2  0  0  0
  7  9  2  0  0  0
 11 12  2  0  0  0
 13 22  2  0  0  0
 14 29  2  0  0  0
 15 27  2  0  0  0
 16 28  2  0  0  0
M  CHG  1  29  -1
M  END
> <rmsd>
0.539745867

$$$$
ZINC12856836


 29 31  0  0  0  0  0  0  0  0999 V2000
   -3.5840   -2.8813    0.3271 C   0  0  0  0  0
   -7.5632    3.3244    0.7424 C   0  0  0  0  0
   -2.2594   -2.9154   -0.1089 C   0  0  0  0  0
   -4.5081   -2.0562   -0.3140 C   0  0  0  0  0
   -8.2529    3.6434   -0.4273 C   0  0  0  0  0
   -6.1706    3.2450    0.7314 C   0  0  0  0  0
   -2.7832   -1.2994   -1.8268 C   0  0  0  0  0
   -1.8591   -2.1245   -1.1859 C   0  0  0  0  0
   -4.1078   -1.2652   -1.3909 C   0  0  0  0  0
   -7.5500    3.8830   -1.6081 C   0  0  0  0  0
   -6.1573    3.8035   -1.6191 C   0  0  0  0  0
   -5.4677    3.4846   -0.4494 C   0  0  0  0  0
   -0.4891   -2.1595   -1.6358 C   0  0  0  0  0
    1.6207   -1.6949   -1.8418 C   0  0  0  0  0
   -0.3377    0.9330   -0.6930 C   0  0  0  0  0
   -3.2609    2.5889    0.3705 C   0  0  0  0  0
   -5.0966   -0.3837   -2.0759 C   0  0  0  0  0
   -8.3134    4.2214   -2.8467 C   0  0  0  0  0
   -5.4078    4.0615   -2.8887 C   0  0  0  0  0
    0.3326   -0.3143   -0.1580 C   0  0  0  0  0
   -1.7928    2.8052    0.0584 C   0  0  0  0  0
    0.0060   -2.9675   -2.5460 N   0  0  0  0  0
    1.3482   -2.6719   -2.6771 N   0  0  0  0  0
    0.4927   -1.3410   -1.1655 N   0  0  0  0  0
   -4.0552    3.3976   -0.4381 N   0  0  0  0  0
   -1.0540    1.5873    0.2988 N   0  0  0  0  0
   -0.2489    1.3012   -1.8612 O   0  0  0  0  0
   -3.6374    1.7894    1.2215 O   0  0  0  0  0
    3.1393   -0.9714   -1.6212 S   0  0  0  0  0
  1  3  1  0  0  0
  2  5  1  0  0  0
  4  9  1  0  0  0
  6 12  1  0  0  0
  7  8  1  0  0  0
  8 13  1  0  0  0
 10 11  1  0  0  0
 12 25  1  0  0  0
 13 24  1  0  0  0
 14 23  1  0  0  0
 14 24  1  0  0  0
 15 26  1  0  0  0
 16 25  1  0  0  0
 17  9  1  0  0  0
 18 10  1  0  0  0
 19 11  1  0  0  0
 20 15  1  0  0  0
 20 24  1  0  0  0
 21 16  1  0  0  0
 21 26  1  0  0  0
 22 23  1  0  0  0
  1  4  2  0  0  0
  2  6  2  0  0  0
  3  8  2  0  0  0
  5 10  2  0  0  0
  7  9  2  0  0  0
 11 12  2  0  0  0
 13 22  2  0  0  0
 14 29  2  0  0  0
 15 27  2  0  0  0
 16 28  2  0  0  0
M  CHG  1  29  -1
M  END
> <rmsd>
0.667903244

$$$$
ZINC12856836


 29 31  0  0  0  0  0  0  0  0999 V2000
   -4.1287   -1.1652   -1.0101 C   0  0  0  0  0
   -7.1346    2.8956   -1.4085 C   0  0  0  0  0
   -2.8510   -1.1770   -1.5694 C   0  0  0  0  0
   -4.4391   -2.0311    0.0385 C   0  0  0  0  0
   -7.2568    2.9616   -2.7964 C   0  0  0  0  0
   -5.8719    2.9348   -0.8169 C   0  0  0  0  0
   -2.1939   -2.9206   -0.0315 C   0  0  0  0  0
   -1.8836   -2.0547   -1.0801 C   0  0  0  0  0
   -3.4717   -2.9088    0.5278 C   0  0  0  0  0
   -6.1165    3.0665   -3.5928 C   0  0  0  0  0
   -4.8538    3.1056   -3.0011 C   0  0  0  0  0
   -4.7316    3.0398   -1.6132 C   0  0  0  0  0
   -0.5627   -2.0671   -1.6593 C   0  0  0  0  0
    1.5251   -1.6052   -2.0298 C   0  0  0  0  0
   -0.2770    0.9454   -0.5107 C   0  0  0  0  0
   -3.0847    2.4802    0.2086 C   0  0  0  0  0
   -3.8043   -3.8340    1.6493 C   0  0  0  0  0
   -6.2757    3.1340   -5.0765 C   0  0  0  0  0
   -3.6333    3.2183   -3.8601 C   0  0  0  0  0
    0.4219   -0.3436   -0.1347 C   0  0  0  0  0
   -1.6268    2.7680    0.5106 C   0  0  0  0  0
   -0.1675   -2.8089   -2.6692 N   0  0  0  0  0
    1.1608   -2.5151   -2.9049 N   0  0  0  0  0
    0.4711   -1.2937   -1.2255 N   0  0  0  0  0
   -3.4606    3.0769   -0.9920 N   0  0  0  0  0
   -0.8870    1.5297    0.5899 N   0  0  0  0  0
   -0.2929    1.3988   -1.6519 O   0  0  0  0  0
   -3.7844    1.7994    0.9519 O   0  0  0  0  0
    3.0684   -0.9123   -1.9017 S   0  0  0  0  0
  1  3  1  0  0  0
  2  5  1  0  0  0
  4  9  1  0  0  0
  6 12  1  0  0  0
  7  8  1  0  0  0
  8 13  1  0  0  0
 10 11  1  0  0  0
 12 25  1  0  0  0
 13 24  1  0  0  0
 14 23  1  0  0  0
 14 24  1  0  0  0
 15 26  1  0  0  0
 16 25  1  0  0  0
 17  9  1  0  0  0
 18 10  1  0  0  0
 19 11  1  0  0  0
 20 15  1  0  0  0
 20 24  1  0  0  0
 21 16  1  0  0  0
 21 26  1  0  0  0
 22 23  1  0  0  0
  1  4  2  0  0  0
  2  6  2  0  0  0
  3  8  2  0  0  0
  5 10  2  0  0  0
  7  9  2  0  0  0
 11 12  2  0  0  0
 13 22  2  0  0  0
 14 29  2  0  0  0
 15 27  2  0  0  0
 16 28  2  0  0  0
M  CHG  1  29  -1
M  END
> <rmsd>
0.561680734

$$$$
ZINC41125265


 29 32  0  0  0  0  0  0  0  0999 V2000
   -3.7349   -2.4914    0.9420 C   0  0  0  0  0
   -3.3987   -1.1461    0.6601 C   0  0  0  0  0
   -3.8672   -3.4464   -0.0811 C   0  0  0  0  0
    1.6160    1.7701   -1.7339 C   0  0  0  0  0
    1.6943   -0.4095   -0.6944 C   0  0  0  0  0
   -2.8402   -0.2835   -3.4745 C   0  0  0  0  0
    0.5017    2.0983   -0.9617 C   0  0  0  0  0
    0.5800   -0.0812    0.0778 C   0  0  0  0  0
   -2.6788    0.7612   -2.5466 C   0  0  0  0  0
   -3.1865   -0.7291   -0.6714 C   0  0  0  0  0
   -3.3315   -1.7178   -1.6384 C   0  0  0  0  0
   -3.6563   -3.0227   -1.3758 C   0  0  0  0  0
    2.2123    0.5161   -1.6002 C   0  0  0  0  0
   -3.1713   -1.5301   -2.9842 C   0  0  0  0  0
   -0.0164    1.1727   -0.0560 C   0  0  0  0  0
   -2.8480    0.5504   -1.1586 C   0  0  0  0  0
   -3.7075   -3.7314   -2.6728 C   0  0  0  0  0
    3.3887    0.1700   -2.4143 C   0  0  0  0  0
   -1.1990   -4.3301   -4.9290 C   0  0  0  0  0
   -1.8839   -3.1143   -5.5370 C   0  0  0  0  0
   -3.3192   -2.9439   -5.0539 C   0  0  0  0  0
   -3.3997   -2.7584   -3.6269 N   0  0  0  0  0
   -1.1662    1.5104    0.7390 N   0  0  0  0  0
    3.9204   -0.9942   -2.2714 O   0  0  0  0  0
   -3.9692   -4.9114   -2.8064 O   0  0  0  0  0
    3.8478    1.0429   -3.2426 O   0  0  0  0  0
   -3.7150    1.8772    0.8942 O   0  0  0  0  0
   -2.4331    3.1100   -0.8768 O   0  0  0  0  0
   -2.6293    1.9091   -0.0767 S   0  0  0  0  0
  1  3  1  0  0  0
  2 10  1  0  0  0
  4 13  1  0  0  0
  5  8  1  0  0  0
  6 14  1  0  0  0
  7 15  1  0  0  0
  9 16  1  0  0  0
 10 11  1  0  0  0
 11 12  1  0  0  0
 12 17  1  0  0  0
 13 18  1  0  0  0
 14 22  1  0  0  0
 15 23  1  0  0  0
 17 22  1  0  0  0
 18 24  1  0  0  0
 19 20  1  0  0  0
 20 21  1  0  0  0
 21 22  1  0  0  0
 29 16  1  0  0  0
 29 23  1  0  0  0
  1  2  2  0  0  0
  3 12  2  0  0  0
  4  7  2  0  0  0
  5 13  2  0  0  0
  6  9  2  0  0  0
  8 15  2  0  0  0
 10 16  2  0  0  0
 11 14  2  0  0  0
 17 25  2  0  0  0
 18 26  2  0  0  0
 29 27  2  0  0  0
 29 28  2  0  0  0
M  CHG  1  24  -1
M  END
> <rmsd>
0.492966384

$$$$
ZINC41125265


 29 32  0  0  0  0  0  0  0  0999 V2000
   -3.7350   -2.4908    0.9413 C   0  0  0  0  0
   -3.3988   -1.1456    0.6595 C   0  0  0  0  0
   -3.8673   -3.4457   -0.0819 C   0  0  0  0  0
    1.6161    1.7706   -1.7341 C   0  0  0  0  0
    1.6943   -0.4090   -0.6948 C   0  0  0  0  0
   -2.8401   -0.2826   -3.4750 C   0  0  0  0  0
    0.5018    2.0988   -0.9619 C   0  0  0  0  0
    0.5800   -0.0808    0.0774 C   0  0  0  0  0
   -2.6787    0.7620   -2.5470 C   0  0  0  0  0
   -3.1866   -0.7284   -0.6719 C   0  0  0  0  0
   -3.3315   -1.7171   -1.6391 C   0  0  0  0  0
   -3.6564   -3.0220   -1.3766 C   0  0  0  0  0
    2.2124    0.5166   -1.6005 C   0  0  0  0  0
   -3.1713   -1.5293   -2.9849 C   0  0  0  0  0
   -0.0163    1.1732   -0.0563 C   0  0  0  0  0
   -2.8479    0.5511   -1.1590 C   0  0  0  0  0
   -3.7076   -3.7305   -2.6736 C   0  0  0  0  0
    3.3888    0.1705   -2.4146 C   0  0  0  0  0
   -4.5791   -2.8958   -7.2552 C   0  0  0  0  0
   -4.6497   -2.6811   -5.7500 C   0  0  0  0  0
   -3.3192   -2.9429   -5.0546 C   0  0  0  0  0
   -3.3997   -2.7574   -3.6277 N   0  0  0  0  0
   -1.1662    1.5108    0.7387 N   0  0  0  0  0
    3.9205   -0.9938   -2.2718 O   0  0  0  0  0
   -3.9693   -4.9105   -2.8074 O   0  0  0  0  0
    3.8479    1.0434   -3.2428 O   0  0  0  0  0
   -3.7149    1.8777    0.8938 O   0  0  0  0  0
   -2.4329    3.1107   -0.8770 O   0  0  0  0  0
   -2.6292    1.9097   -0.0770 S   0  0  0  0  0
  1  3  1  0  0  0
  2 10  1  0  0  0
  4 13  1  0  0  0
  5  8  1  0  0  0
  6 14  1  0  0  0
  7 15  1  0  0  0
  9 16  1  0  0  0
 10 11  1  0  0  0
 11 12  1  0  0  0
 12 17  1  0  0  0
 13 18  1  0  0  0
 14 22  1  0  0  0
 15 23  1  0  0  0
 17 22  1  0  0  0
 18 24  1  0  0  0
 19 20  1  0  0  0
 20 21  1  0  0  0
 21 22  1  0  0  0
 29 16  1  0  0  0
 29 23  1  0  0  0
  1  2  2  0  0  0
  3 12  2  0  0  0
  4  7  2  0  0  0
  5 13  2  0  0  0
  6  9  2  0  0  0
  8 15  2  0  0  0
 10 16  2  0  0  0
 11 14  2  0  0  0
 17 25  2  0  0  0
 18 26  2  0  0  0
 29 27  2  0  0  0
 29 28  2  0  0  0
M  CHG  1  24  -1
M  END
> <rmsd>
0.492937326

$$$$
ZINC32962233


 27 29  0  0  0  0  0  0  0  0999 V2000
   -2.4098   -2.2166   -1.8269 C   0  0  0  0  0
    1.0082    2.8719   -2.2086 C   0  0  0  0  0
   -0.0482    2.7591   -1.3047 C   0  0  0  0  0
   -2.3837   -0.8449   -1.5754 C   0  0  0  0  0
   -2.8301   -3.1001   -0.8326 C   0  0  0  0  0
    0.9926    0.8077   -0.3320 C   0  0  0  0  0
    2.0488    0.9205   -1.2360 C   0  0  0  0  0
   -3.1981   -1.2400    0.6646 C   0  0  0  0  0
    2.0566    1.9525   -2.1743 C   0  0  0  0  0
   -0.0560    1.7269   -0.3663 C   0  0  0  0  0
   -2.7777   -0.3566   -0.3297 C   0  0  0  0  0
   -3.2242   -2.6118    0.4131 C   0  0  0  0  0
    3.1451   -0.0648   -1.1783 C   0  0  0  0  0
    4.2627    2.9042   -2.7059 C   0  0  0  0  0
    2.8330    2.0229   -4.5295 C   0  0  0  0  0
    5.4690    2.5244   -3.5572 C   0  0  0  0  0
    4.1157    1.6906   -5.2838 C   0  0  0  0  0
   -3.6191   -0.7087    1.9997 C   0  0  0  0  0
    3.1063    2.0829   -3.0894 N   0  0  0  0  0
   -1.1374    1.6119    0.5586 N   0  0  0  0  0
    3.0489   -1.1362   -1.8837 O   0  0  0  0  0
    4.1576    0.1827   -0.4244 O   0  0  0  0  0
   -3.6869    1.6739    1.0032 O   0  0  0  0  0
   -2.8668    2.0466   -1.3396 O   0  0  0  0  0
    5.1487    2.6153   -4.9453 O   0  0  0  0  0
   -2.7328    1.3910   -0.0528 S   0  0  0  0  0
   -3.7324   -3.7403    1.6172 Cl  0  0  0  0  0
  1  4  1  0  0  0
  2  9  1  0  0  0
  3 10  1  0  0  0
  5 12  1  0  0  0
  6  7  1  0  0  0
  7 13  1  0  0  0
  8 11  1  0  0  0
  9 19  1  0  0  0
 10 20  1  0  0  0
 12 27  1  0  0  0
 13 21  1  0  0  0
 14 16  1  0  0  0
 14 19  1  0  0  0
 15 17  1  0  0  0
 15 19  1  0  0  0
 16 25  1  0  0  0
 17 25  1  0  0  0
 18  8  1  0  0  0
 26 11  1  0  0  0
 26 20  1  0  0  0
  1  5  2  0  0  0
  2  3  2  0  0  0
  4 11  2  0  0  0
  6 10  2  0  0  0
  7  9  2  0  0  0
  8 12  2  0  0  0
 13 22  2  0  0  0
 26 23  2  0  0  0
 26 24  2  0  0  0
M  CHG  1  21  -1
M  END
> <rmsd>
0.71555686

$$$$
ZINC32962233


 27 29  0  0  0  0  0  0  0  0999 V2000
   -2.8957   -2.2883   -1.7927 C   0  0  0  0  0
    0.8563    2.5090   -2.5862 C   0  0  0  0  0
   -0.1166    2.4910   -1.5867 C   0  0  0  0  0
   -2.7398   -0.9200   -1.5713 C   0  0  0  0  0
   -3.2886   -3.1237   -0.7470 C   0  0  0  0  0
    0.8559    0.4753   -0.6765 C   0  0  0  0  0
    1.8286    0.4933   -1.6761 C   0  0  0  0  0
   -3.3696   -1.2225    0.7415 C   0  0  0  0  0
    1.8288    1.5101   -2.6309 C   0  0  0  0  0
   -0.1168    1.4741   -0.6318 C   0  0  0  0  0
   -2.9767   -0.3871   -0.3042 C   0  0  0  0  0
   -3.5255   -2.5908    0.5201 C   0  0  0  0  0
    2.8457   -0.5749   -1.7006 C   0  0  0  0  0
    4.0428    2.2779   -3.3819 C   0  0  0  0  0
    2.3849    1.4905   -5.0486 C   0  0  0  0  0
    5.1311    1.7936   -4.3332 C   0  0  0  0  0
    3.5619    1.0487   -5.9112 C   0  0  0  0  0
   -3.6215   -0.6435    2.0992 C   0  0  0  0  0
    2.7954    1.5460   -3.6412 N   0  0  0  0  0
   -1.1127    1.4561    0.3909 N   0  0  0  0  0
    2.6012   -1.6437   -2.3733 O   0  0  0  0  0
    3.9403   -0.3992   -1.0481 O   0  0  0  0  0
   -3.5970    1.7249    1.0672 O   0  0  0  0  0
   -2.9729    2.0032   -1.3479 O   0  0  0  0  0
    4.6907    1.8928   -5.6874 O   0  0  0  0  0
   -2.7706    1.3546   -0.0665 S   0  0  0  0  0
   -4.0051   -3.6610    1.7875 Cl  0  0  0  0  0
  1  4  1  0  0  0
  2  9  1  0  0  0
  3 10  1  0  0  0
  5 12  1  0  0  0
  6  7  1  0  0  0
  7 13  1  0  0  0
  8 11  1  0  0  0
  9 19  1  0  0  0
 10 20  1  0  0  0
 12 27  1  0  0  0
 13 21  1  0  0  0
 14 16  1  0  0  0
 14 19  1  0  0  0
 15 17  1  0  0  0
 15 19  1  0  0  0
 16 25  1  0  0  0
 17 25  1  0  0  0
 18  8  1  0  0  0
 26 11  1  0  0  0
 26 20  1  0  0  0
  1  5  2  0  0  0
  2  3  2  0  0  0
  4 11  2  0  0  0
  6 10  2  0  0  0
  7  9  2  0  0  0
  8 12  2  0  0  0
 13 22  2  0  0  0
 26 23  2  0  0  0
 26 24  2  0  0  0
M  CHG  1  21  -1
M  END
> <rmsd>
0.533092201

$$$$
ZINC35397340


 28 30  0  0  0  0  0  0  0  0999 V2000
   -3.5698   -2.5597    0.5591 C   0  0  0  0  0
   -3.3979   -1.1885    0.7486 C   0  0  0  0  0
    0.8678    0.4569   -0.6594 C   0  0  0  0  0
   -2.7427   -0.9509   -1.5647 C   0  0  0  0  0
   -0.0604    2.4526   -1.5606 C   0  0  0  0  0
    1.8375    0.4944   -1.6553 C   0  0  0  0  0
   -0.1028    1.4510   -0.6042 C   0  0  0  0  0
   -3.3280   -3.1265   -0.6923 C   0  0  0  0  0
   -2.9146   -2.3221   -1.7542 C   0  0  0  0  0
   -2.9843   -0.3841   -0.3132 C   0  0  0  0  0
    1.7929    1.5388   -2.5647 C   0  0  0  0  0
    2.8646   -0.5599   -1.7116 C   0  0  0  0  0
    3.4921    1.0235   -5.8555 C   0  0  0  0  0
    5.1515    1.7925   -4.1487 C   0  0  0  0  0
    2.3528    1.5396   -4.9767 C   0  0  0  0  0
    4.0082    2.3112   -3.2780 C   0  0  0  0  0
    4.7814    1.8208   -5.6352 C   0  0  0  0  0
    5.9180    1.2646   -6.4893 C   0  0  0  0  0
    0.8657    2.5225   -2.5429 N   0  0  0  0  0
    2.7660    1.5831   -3.5702 N   0  0  0  0  0
   -1.1096    1.4396    0.4043 N   0  0  0  0  0
    2.6286   -1.6168   -2.4076 O   0  0  0  0  0
    3.9633   -0.3887   -1.0628 O   0  0  0  0  0
   -3.6011    1.7330    1.0518 O   0  0  0  0  0
   -2.9447    2.0067   -1.3553 O   0  0  0  0  0
   -3.4932   -4.4431   -0.8750 F   0  0  0  0  0
   -2.6837   -2.8662   -2.9561 F   0  0  0  0  0
   -2.7644    1.3554   -0.0720 S   0  0  0  0  0
  1  8  1  0  0  0
  2 10  1  0  0  0
  3  7  1  0  0  0
  4  9  1  0  0  0
  5 19  1  0  0  0
  6 11  1  0  0  0
  6 12  1  0  0  0
  7 21  1  0  0  0
  8 26  1  0  0  0
  9 27  1  0  0  0
 11 20  1  0  0  0
 12 22  1  0  0  0
 13 15  1  0  0  0
 13 17  1  0  0  0
 14 16  1  0  0  0
 14 17  1  0  0  0
 15 20  1  0  0  0
 16 20  1  0  0  0
 17 18  1  0  0  0
 28 10  1  0  0  0
 28 21  1  0  0  0
  1  2  2  0  0  0
  3  6  2  0  0  0
  4 10  2  0  0  0
  5  7  2  0  0  0
  8  9  2  0  0  0
 11 19  2  0  0  0
 12 23  2  0  0  0
 28 24  2  0  0  0
 28 25  2  0  0  0
M  CHG  1  22  -1
M  END
> <rmsd>
0.510613799

$$$$
ZINC35397340


 28 30  0  0  0  0  0  0  0  0999 V2000
   -3.2792   -2.5841    0.4530 C   0  0  0  0  0
   -3.2330   -1.2075    0.6725 C   0  0  0  0  0
    1.0042    0.7846   -0.3092 C   0  0  0  0  0
   -2.3855   -0.8790   -1.5660 C   0  0  0  0  0
    0.0114    2.7193   -1.2726 C   0  0  0  0  0
    2.0566    0.9141   -1.2087 C   0  0  0  0  0
   -0.0418    1.7003   -0.3352 C   0  0  0  0  0
   -2.8784   -3.1082   -0.7760 C   0  0  0  0  0
   -2.4316   -2.2557   -1.7855 C   0  0  0  0  0
   -2.7861   -0.3548   -0.3370 C   0  0  0  0  0
    2.0158    1.9681   -2.1071 C   0  0  0  0  0
    3.1635   -0.0573   -1.1791 C   0  0  0  0  0
    4.0494    1.6435   -5.2282 C   0  0  0  0  0
    5.4775    2.5065   -3.3644 C   0  0  0  0  0
    2.7964    2.0550   -4.4553 C   0  0  0  0  0
    4.2210    2.9205   -2.6000 C   0  0  0  0  0
    5.2464    2.5331   -4.8788 C   0  0  0  0  0
    6.4976    2.0809   -5.6278 C   0  0  0  0  0
    1.0169    2.8774   -2.1624 N   0  0  0  0  0
    3.0720    2.1048   -3.0157 N   0  0  0  0  0
   -1.1343    1.5939    0.5736 N   0  0  0  0  0
    3.0765   -1.1166   -1.9055 O   0  0  0  0  0
    4.1802    0.1858   -0.4278 O   0  0  0  0  0
   -3.6906    1.6840    0.9862 O   0  0  0  0  0
   -2.8359    2.0502   -1.3451 O   0  0  0  0  0
   -2.9228   -4.4302   -0.9875 F   0  0  0  0  0
   -2.0480   -2.7588   -2.9660 F   0  0  0  0  0
   -2.7259    1.3918   -0.0575 S   0  0  0  0  0
  1  8  1  0  0  0
  2 10  1  0  0  0
  3  7  1  0  0  0
  4  9  1  0  0  0
  5 19  1  0  0  0
  6 11  1  0  0  0
  6 12  1  0  0  0
  7 21  1  0  0  0
  8 26  1  0  0  0
  9 27  1  0  0  0
 11 20  1  0  0  0
 12 22  1  0  0  0
 13 15  1  0  0  0
 13 17  1  0  0  0
 14 16  1  0  0  0
 14 17  1  0  0  0
 15 20  1  0  0  0
 16 20  1  0  0  0
 17 18  1  0  0  0
 28 10  1  0  0  0
 28 21  1  0  0  0
  1  2  2  0  0  0
  3  6  2  0  0  0
  4 10  2  0  0  0
  5  7  2  0  0  0
  8  9  2  0  0  0
 11 19  2  0  0  0
 12 23  2  0  0  0
 28 24  2  0  0  0
 28 25  2  0  0  0
M  CHG  1  22  -1
M  END
> <rmsd>
0.689621747

$$$$
ZINC35397440


 28 30  0  0  0  0  0  0  0  0999 V2000
   -2.8802   -3.1085   -0.7730 C   0  0  0  0  0
   -2.4324   -2.2581   -1.7839 C   0  0  0  0  0
    1.0047    0.7843   -0.3091 C   0  0  0  0  0
   -3.2339   -1.2047    0.6719 C   0  0  0  0  0
    0.0126    2.7199   -1.2713 C   0  0  0  0  0
    2.0574    0.9143   -1.2081 C   0  0  0  0  0
   -0.0411    1.7003   -0.3347 C   0  0  0  0  0
   -3.2810   -2.5818    0.4550 C   0  0  0  0  0
   -2.3852   -0.8811   -1.5669 C   0  0  0  0  0
   -2.7860   -0.3543   -0.3391 C   0  0  0  0  0
    2.0170    1.9690   -2.1057 C   0  0  0  0  0
    3.1641   -0.0574   -1.1790 C   0  0  0  0  0
    4.2969    4.1307   -4.9026 C   0  0  0  0  0
    3.6893    3.1979   -5.9492 C   0  0  0  0  0
    5.0910    3.3936   -3.8239 C   0  0  0  0  0
    2.6055    2.2582   -5.4245 C   0  0  0  0  0
    4.2416    2.9122   -2.6460 C   0  0  0  0  0
    3.0709    1.3654   -4.2762 C   0  0  0  0  0
    1.0182    2.8785   -2.1607 N   0  0  0  0  0
    3.0737    2.1062   -3.0140 N   0  0  0  0  0
   -1.1340    1.5934    0.5736 N   0  0  0  0  0
    3.0770   -1.1161   -1.9061 O   0  0  0  0  0
    4.1805    0.1851   -0.4271 O   0  0  0  0  0
   -3.6904    1.6838    0.9855 O   0  0  0  0  0
   -2.8350    2.0516   -1.3453 O   0  0  0  0  0
   -3.7098   -3.3983    1.4263 F   0  0  0  0  0
   -1.9530   -0.0737   -2.5457 F   0  0  0  0  0
   -2.7255    1.3922   -0.0582 S   0  0  0  0  0
  1  2  1  0  0  0
  3  7  1  0  0  0
  4  8  1  0  0  0
  5 19  1  0  0  0
  6 11  1  0  0  0
  6 12  1  0  0  0
  7 21  1  0  0  0
  8 26  1  0  0  0
  9 10  1  0  0  0
  9 27  1  0  0  0
 11 20  1  0  0  0
 12 22  1  0  0  0
 13 14  1  0  0  0
 13 15  1  0  0  0
 14 16  1  0  0  0
 15 17  1  0  0  0
 16 18  1  0  0  0
 17 20  1  0  0  0
 18 20  1  0  0  0
 28 10  1  0  0  0
 28 21  1  0  0  0
  1  8  2  0  0  0
  2  9  2  0  0  0
  3  6  2  0  0  0
  4 10  2  0  0  0
  5  7  2  0  0  0
 11 19  2  0  0  0
 12 23  2  0  0  0
 28 24  2  0  0  0
 28 25  2  0  0  0
M  CHG  1  22  -1
M  END
> <rmsd>
0.68859899

$$$$
ZINC35397440


 28 30  0  0  0  0  0  0  0  0999 V2000
   -3.3291   -3.1265   -0.6894 C   0  0  0  0  0
   -2.9150   -2.3243   -1.7527 C   0  0  0  0  0
    0.8684    0.4570   -0.6593 C   0  0  0  0  0
   -3.3984   -1.1857    0.7479 C   0  0  0  0  0
   -0.0591    2.4535   -1.5592 C   0  0  0  0  0
    1.8385    0.4950   -1.6546 C   0  0  0  0  0
   -0.1020    1.4511   -0.6037 C   0  0  0  0  0
   -3.5709   -2.5572    0.5609 C   0  0  0  0  0
   -2.7424   -0.9529   -1.5657 C   0  0  0  0  0
   -2.9841   -0.3836   -0.3155 C   0  0  0  0  0
    1.7944    1.5401   -2.5633 C   0  0  0  0  0
    2.8655   -0.5594   -1.7114 C   0  0  0  0  0
    3.9590    3.4881   -5.5986 C   0  0  0  0  0
    3.1859    2.5944   -6.5672 C   0  0  0  0  0
    4.7926    2.7029   -4.5856 C   0  0  0  0  0
    2.0877    1.7475   -5.9271 C   0  0  0  0  0
    4.0237    2.3016   -3.3253 C   0  0  0  0  0
    2.5897    0.8334   -4.8114 C   0  0  0  0  0
    0.8674    2.5239   -2.5412 N   0  0  0  0  0
    2.7681    1.5850   -3.5684 N   0  0  0  0  0
   -1.1093    1.4393    0.4043 N   0  0  0  0  0
    2.6295   -1.6158   -2.4083 O   0  0  0  0  0
    3.9638   -0.3888   -1.0620 O   0  0  0  0  0
   -3.6011    1.7326    1.0510 O   0  0  0  0  0
   -2.9437    2.0080   -1.3555 O   0  0  0  0  0
   -3.9674   -3.3275    1.5825 F   0  0  0  0  0
   -2.3439   -0.1921   -2.5948 F   0  0  0  0  0
   -2.7640    1.3558   -0.0727 S   0  0  0  0  0
  1  2  1  0  0  0
  3  7  1  0  0  0
  4  8  1  0  0  0
  5 19  1  0  0  0
  6 11  1  0  0  0
  6 12  1  0  0  0
  7 21  1  0  0  0
  8 26  1  0  0  0
  9 10  1  0  0  0
  9 27  1  0  0  0
 11 20  1  0  0  0
 12 22  1  0  0  0
 13 14  1  0  0  0
 13 15  1  0  0  0
 14 16  1  0  0  0
 15 17  1  0  0  0
 16 18  1  0  0  0
 17 20  1  0  0  0
 18 20  1  0  0  0
 28 10  1  0  0  0
 28 21  1  0  0  0
  1  8  2  0  0  0
  2  9  2  0  0  0
  3  6  2  0  0  0
  4 10  2  0  0  0
  5  7  2  0  0  0
 11 19  2  0  0  0
 12 23  2  0  0  0
 28 24  2  0  0  0
 28 25  2  0  0  0
M  CHG  1  22  -1
M  END
> <rmsd>
0.509750128

$$$$
ZINC35397441


 28 30  0  0  0  0  0  0  0  0999 V2000
   -3.2793   -2.5838    0.4534 C   0  0  0  0  0
   -3.2332   -1.2070    0.6727 C   0  0  0  0  0
    1.0039    0.7852   -0.3095 C   0  0  0  0  0
   -2.3858   -0.8788   -1.5659 C   0  0  0  0  0
    0.0109    2.7196   -1.2730 C   0  0  0  0  0
    2.0562    0.9146   -1.2090 C   0  0  0  0  0
   -0.0422    1.7008   -0.3355 C   0  0  0  0  0
   -2.8785   -3.1081   -0.7756 C   0  0  0  0  0
   -2.4319   -2.2556   -1.7852 C   0  0  0  0  0
   -2.7865   -0.3546   -0.3370 C   0  0  0  0  0
    2.0152    1.9685   -2.1075 C   0  0  0  0  0
    3.1632   -0.0567   -1.1794 C   0  0  0  0  0
    4.2934    4.1284   -4.9072 C   0  0  0  0  0
    3.6857    3.1945   -5.9528 C   0  0  0  0  0
    5.0881    3.3925   -3.8282 C   0  0  0  0  0
    2.6023    2.2550   -5.4268 C   0  0  0  0  0
    4.2393    2.9119   -2.6496 C   0  0  0  0  0
    3.0684    1.3633   -4.2779 C   0  0  0  0  0
    1.0161    2.8776   -2.1629 N   0  0  0  0  0
    3.0714    2.1052   -3.0164 N   0  0  0  0  0
   -1.1347    1.5944    0.5733 N   0  0  0  0  0
    3.0761   -1.1161   -1.9056 O   0  0  0  0  0
    4.1798    0.1867   -0.4282 O   0  0  0  0  0
   -3.6910    1.6844    0.9861 O   0  0  0  0  0
   -2.8366    2.0504   -1.3453 O   0  0  0  0  0
   -2.9228   -4.4300   -0.9869 F   0  0  0  0  0
   -2.0483   -2.7589   -2.9657 F   0  0  0  0  0
   -2.7264    1.3922   -0.0577 S   0  0  0  0  0
  1  2  1  0  0  0
  3  7  1  0  0  0
  4 10  1  0  0  0
  5 19  1  0  0  0
  6 11  1  0  0  0
  6 12  1  0  0  0
  7 21  1  0  0  0
  8  9  1  0  0  0
  8 26  1  0  0  0
  9 27  1  0  0  0
 11 20  1  0  0  0
 12 22  1  0  0  0
 13 14  1  0  0  0
 13 15  1  0  0  0
 14 16  1  0  0  0
 15 17  1  0  0  0
 16 18  1  0  0  0
 17 20  1  0  0  0
 18 20  1  0  0  0
 28 10  1  0  0  0
 28 21  1  0  0  0
  1  8  2  0  0  0
  2 10  2  0  0  0
  3  6  2  0  0  0
  4  9  2  0  0  0
  5  7  2  0  0  0
 11 19  2  0  0  0
 12 23  2  0  0  0
 28 24  2  0  0  0
 28 25  2  0  0  0
M  CHG  1  22  -1
M  END
> <rmsd>
0.689388871

$$$$
ZINC35397441


 28 30  0  0  0  0  0  0  0  0999 V2000
   -3.5697   -2.5593    0.5595 C   0  0  0  0  0
   -3.3980   -1.1881    0.7488 C   0  0  0  0  0
    0.8677    0.4575   -0.6592 C   0  0  0  0  0
   -2.7427   -0.9508   -1.5645 C   0  0  0  0  0
   -0.0607    2.4530   -1.5607 C   0  0  0  0  0
    1.8374    0.4949   -1.6550 C   0  0  0  0  0
   -0.1030    1.4514   -0.6042 C   0  0  0  0  0
   -3.3279   -3.1263   -0.6919 C   0  0  0  0  0
   -2.9144   -2.3220   -1.7538 C   0  0  0  0  0
   -2.9845   -0.3838   -0.3132 C   0  0  0  0  0
    1.7927    1.5392   -2.5646 C   0  0  0  0  0
    2.8646   -0.5593   -1.7112 C   0  0  0  0  0
    3.9556    3.4850   -5.6025 C   0  0  0  0  0
    3.1824    2.5902   -6.5700 C   0  0  0  0  0
    4.7897    2.7010   -4.5891 C   0  0  0  0  0
    2.0846    1.7435   -5.9286 C   0  0  0  0  0
    4.0215    2.3006   -3.3282 C   0  0  0  0  0
    2.5873    0.8306   -4.8124 C   0  0  0  0  0
    0.8654    2.5227   -2.5430 N   0  0  0  0  0
    2.7660    1.5834   -3.5701 N   0  0  0  0  0
   -1.1099    1.4402    0.4042 N   0  0  0  0  0
    2.6288   -1.6163   -2.4070 O   0  0  0  0  0
    3.9632   -0.3877   -1.0624 O   0  0  0  0  0
   -3.6016    1.7334    1.0515 O   0  0  0  0  0
   -2.9451    2.0068   -1.3555 O   0  0  0  0  0
   -3.4929   -4.4430   -0.8743 F   0  0  0  0  0
   -2.6834   -2.8663   -2.9557 F   0  0  0  0  0
   -2.7648    1.3558   -0.0721 S   0  0  0  0  0
  1  2  1  0  0  0
  3  7  1  0  0  0
  4 10  1  0  0  0
  5 19  1  0  0  0
  6 11  1  0  0  0
  6 12  1  0  0  0
  7 21  1  0  0  0
  8  9  1  0  0  0
  8 26  1  0  0  0
  9 27  1  0  0  0
 11 20  1  0  0  0
 12 22  1  0  0  0
 13 14  1  0  0  0
 13 15  1  0  0  0
 14 16  1  0  0  0
 15 17  1  0  0  0
 16 18  1  0  0  0
 17 20  1  0  0  0
 18 20  1  0  0  0
 28 10  1  0  0  0
 28 21  1  0  0  0
  1  8  2  0  0  0
  2 10  2  0  0  0
  3  6  2  0  0  0
  4  9  2  0  0  0
  5  7  2  0  0  0
 11 19  2  0  0  0
 12 23  2  0  0  0
 28 24  2  0  0  0
 28 25  2  0  0  0
M  CHG  1  22  -1
M  END
> <rmsd>
0.510445774

$$$$
ZINC35397340


 28 30  0  0  0  0  0  0  0  0999 V2000
   -2.4345   -2.2554   -1.7861 C   0  0  0  0  0
   -2.3861   -0.8789   -1.5658 C   0  0  0  0  0
    1.0047    0.7856   -0.3096 C   0  0  0  0  0
   -3.2331   -1.2076    0.6730 C   0  0  0  0  0
    0.0112    2.7195   -1.2738 C   0  0  0  0  0
    2.0569    0.9150   -1.2093 C   0  0  0  0  0
   -0.0416    1.7010   -0.3359 C   0  0  0  0  0
   -2.8823   -3.1080   -0.7769 C   0  0  0  0  0
   -3.2816   -2.5840    0.4525 C   0  0  0  0  0
   -2.7853   -0.3550   -0.3362 C   0  0  0  0  0
    2.0156    1.9686   -2.1082 C   0  0  0  0  0
    3.1641   -0.0560   -1.1795 C   0  0  0  0  0
    4.0488    1.6431   -5.2296 C   0  0  0  0  0
    5.4769    2.5074   -3.3664 C   0  0  0  0  0
    2.7958    2.0546   -4.4567 C   0  0  0  0  0
    4.2205    2.9214   -2.6020 C   0  0  0  0  0
    5.2456    2.5332   -4.8808 C   0  0  0  0  0
    6.4968    2.0810   -5.6297 C   0  0  0  0  0
    1.0164    2.8775   -2.1638 N   0  0  0  0  0
    3.0716    2.1051   -3.0171 N   0  0  0  0  0
   -1.1339    1.5947    0.5732 N   0  0  0  0  0
    3.0773   -1.1157   -1.9054 O   0  0  0  0  0
    4.1809    0.1878   -0.4285 O   0  0  0  0  0
   -3.6901    1.6842    0.9862 O   0  0  0  0  0
   -2.8360    2.0496   -1.3454 O   0  0  0  0  0
   -2.9289   -4.4299   -0.9879 F   0  0  0  0  0
   -3.7105   -3.4027    1.4220 F   0  0  0  0  0
   -2.7255    1.3918   -0.0576 S   0  0  0  0  0
  1  8  1  0  0  0
  2 10  1  0  0  0
  3  7  1  0  0  0
  4  9  1  0  0  0
  5 19  1  0  0  0
  6 11  1  0  0  0
  6 12  1  0  0  0
  7 21  1  0  0  0
  8 26  1  0  0  0
  9 27  1  0  0  0
 11 20  1  0  0  0
 12 22  1  0  0  0
 13 15  1  0  0  0
 13 17  1  0  0  0
 14 16  1  0  0  0
 14 17  1  0  0  0
 15 20  1  0  0  0
 16 20  1  0  0  0
 17 18  1  0  0  0
 28 10  1  0  0  0
 28 21  1  0  0  0
  1  2  2  0  0  0
  3  6  2  0  0  0
  4 10  2  0  0  0
  5  7  2  0  0  0
  8  9  2  0  0  0
 11 19  2  0  0  0
 12 23  2  0  0  0
 28 24  2  0  0  0
 28 25  2  0  0  0
M  CHG  1  22  -1
M  END
> <rmsd>
0.688599467

$$$$
ZINC35397340


 28 30  0  0  0  0  0  0  0  0999 V2000
   -2.9174   -2.3217   -1.7545 C   0  0  0  0  0
   -2.7432   -0.9509   -1.5644 C   0  0  0  0  0
    0.8684    0.4577   -0.6596 C   0  0  0  0  0
   -3.3981   -1.1886    0.7491 C   0  0  0  0  0
   -0.0605    2.4527   -1.5615 C   0  0  0  0  0
    1.8379    0.4950   -1.6556 C   0  0  0  0  0
   -0.1025    1.4515   -0.6047 C   0  0  0  0  0
   -3.3321   -3.1259   -0.6929 C   0  0  0  0  0
   -3.5724   -2.5594    0.5588 C   0  0  0  0  0
   -2.9834   -0.3843   -0.3125 C   0  0  0  0  0
    1.7929    1.5390   -2.5655 C   0  0  0  0  0
    2.8654   -0.5590   -1.7116 C   0  0  0  0  0
    3.4918    1.0227   -5.8563 C   0  0  0  0  0
    5.1513    1.7930   -4.1501 C   0  0  0  0  0
    2.3525    1.5388   -4.9776 C   0  0  0  0  0
    4.0079    2.3117   -3.2795 C   0  0  0  0  0
    4.7809    1.8205   -5.6366 C   0  0  0  0  0
    5.9176    1.2642   -6.4906 C   0  0  0  0  0
    0.8655    2.5224   -2.5440 N   0  0  0  0  0
    2.7659    1.5831   -3.5711 N   0  0  0  0  0
   -1.1092    1.4403    0.4039 N   0  0  0  0  0
    2.6296   -1.6163   -2.4071 O   0  0  0  0  0
    3.9641   -0.3871   -1.0631 O   0  0  0  0  0
   -3.6007    1.7332    1.0516 O   0  0  0  0  0
   -2.9447    2.0060   -1.3557 O   0  0  0  0  0
   -3.4995   -4.4424   -0.8748 F   0  0  0  0  0
   -3.9694   -3.3318    1.5786 F   0  0  0  0  0
   -2.7640    1.3554   -0.0721 S   0  0  0  0  0
  1  8  1  0  0  0
  2 10  1  0  0  0
  3  7  1  0  0  0
  4  9  1  0  0  0
  5 19  1  0  0  0
  6 11  1  0  0  0
  6 12  1  0  0  0
  7 21  1  0  0  0
  8 26  1  0  0  0
  9 27  1  0  0  0
 11 20  1  0  0  0
 12 22  1  0  0  0
 13 15  1  0  0  0
 13 17  1  0  0  0
 14 16  1  0  0  0
 14 17  1  0  0  0
 15 20  1  0  0  0
 16 20  1  0  0  0
 17 18  1  0  0  0
 28 10  1  0  0  0
 28 21  1  0  0  0
  1  2  2  0  0  0
  3  6  2  0  0  0
  4 10  2  0  0  0
  5  7  2  0  0  0
  8  9  2  0  0  0
 11 19  2  0  0  0
 12 23  2  0  0  0
 28 24  2  0  0  0
 28 25  2  0  0  0
M  CHG  1  22  -1
M  END
> <rmsd>
0.5096789

$$$$
ZINC35397441


 28 30  0  0  0  0  0  0  0  0999 V2000
   -2.9177   -2.3222   -1.7544 C   0  0  0  0  0
   -2.7435   -0.9514   -1.5643 C   0  0  0  0  0
    0.8681    0.4570   -0.6592 C   0  0  0  0  0
   -3.3986   -1.1891    0.7491 C   0  0  0  0  0
   -0.0607    2.4521   -1.5612 C   0  0  0  0  0
    1.8377    0.4944   -1.6551 C   0  0  0  0  0
   -0.1028    1.4508   -0.6044 C   0  0  0  0  0
   -3.3325   -3.1265   -0.6929 C   0  0  0  0  0
   -3.5728   -2.5599    0.5588 C   0  0  0  0  0
   -2.9838   -0.3849   -0.3126 C   0  0  0  0  0
    1.7927    1.5384   -2.5650 C   0  0  0  0  0
    2.8652   -0.5596   -1.7111 C   0  0  0  0  0
    3.9549    3.4837   -5.6037 C   0  0  0  0  0
    3.1818    2.5884   -6.5708 C   0  0  0  0  0
    4.7894    2.7002   -4.5902 C   0  0  0  0  0
    2.0843    1.7418   -5.9291 C   0  0  0  0  0
    4.0213    2.3000   -3.3290 C   0  0  0  0  0
    2.5873    0.8293   -4.8127 C   0  0  0  0  0
    0.8653    2.5217   -2.5436 N   0  0  0  0  0
    2.7659    1.5825   -3.5706 N   0  0  0  0  0
   -1.1095    1.4397    0.4041 N   0  0  0  0  0
    2.6294   -1.6169   -2.4065 O   0  0  0  0  0
    3.9637   -0.3877   -1.0624 O   0  0  0  0  0
   -3.6012    1.7327    1.0516 O   0  0  0  0  0
   -2.9450    2.0055   -1.3555 O   0  0  0  0  0
   -3.4998   -4.4430   -0.8749 F   0  0  0  0  0
   -3.9700   -3.3323    1.5785 F   0  0  0  0  0
   -2.7644    1.3549   -0.0720 S   0  0  0  0  0
  1  2  1  0  0  0
  3  7  1  0  0  0
  4 10  1  0  0  0
  5 19  1  0  0  0
  6 11  1  0  0  0
  6 12  1  0  0  0
  7 21  1  0  0  0
  8  9  1  0  0  0
  8 26  1  0  0  0
  9 27  1  0  0  0
 11 20  1  0  0  0
 12 22  1  0  0  0
 13 14  1  0  0  0
 13 15  1  0  0  0
 14 16  1  0  0  0
 15 17  1  0  0  0
 16 18  1  0  0  0
 17 20  1  0  0  0
 18 20  1  0  0  0
 28 10  1  0  0  0
 28 21  1  0  0  0
  1  8  2  0  0  0
  2 10  2  0  0  0
  3  6  2  0  0  0
  4  9  2  0  0  0
  5  7  2  0  0  0
 11 19  2  0  0  0
 12 23  2  0  0  0
 28 24  2  0  0  0
 28 25  2  0  0  0
M  CHG  1  22  -1
M  END
> <rmsd>
0.509483397

$$$$
ZINC35397441


 28 30  0  0  0  0  0  0  0  0999 V2000
   -2.4351   -2.2560   -1.7861 C   0  0  0  0  0
   -2.3867   -0.8795   -1.5658 C   0  0  0  0  0
    1.0043    0.7849   -0.3096 C   0  0  0  0  0
   -3.2336   -1.2081    0.6730 C   0  0  0  0  0
    0.0108    2.7188   -1.2737 C   0  0  0  0  0
    2.0565    0.9142   -1.2094 C   0  0  0  0  0
   -0.0419    1.7003   -0.3358 C   0  0  0  0  0
   -2.8830   -3.1085   -0.7770 C   0  0  0  0  0
   -3.2821   -2.5846    0.4525 C   0  0  0  0  0
   -2.7858   -0.3556   -0.3363 C   0  0  0  0  0
    2.0152    1.9679   -2.1082 C   0  0  0  0  0
    3.1637   -0.0569   -1.1796 C   0  0  0  0  0
    4.2926    4.1272   -4.9089 C   0  0  0  0  0
    3.6849    3.1929   -5.9541 C   0  0  0  0  0
    5.0876    3.3918   -3.8297 C   0  0  0  0  0
    2.6018    2.2533   -5.4276 C   0  0  0  0  0
    4.2390    2.9114   -2.6508 C   0  0  0  0  0
    3.0683    1.3621   -4.2786 C   0  0  0  0  0
    1.0159    2.8768   -2.1638 N   0  0  0  0  0
    3.0713    2.1044   -3.0172 N   0  0  0  0  0
   -1.1343    1.5940    0.5732 N   0  0  0  0  0
    3.0767   -1.1165   -1.9054 O   0  0  0  0  0
    4.1804    0.1870   -0.4286 O   0  0  0  0  0
   -3.6905    1.6837    0.9863 O   0  0  0  0  0
   -2.8365    2.0491   -1.3453 O   0  0  0  0  0
   -2.9296   -4.4306   -0.9880 F   0  0  0  0  0
   -3.7111   -3.4033    1.4220 F   0  0  0  0  0
   -2.7260    1.3913   -0.0575 S   0  0  0  0  0
  1  2  1  0  0  0
  3  7  1  0  0  0
  4 10  1  0  0  0
  5 19  1  0  0  0
  6 11  1  0  0  0
  6 12  1  0  0  0
  7 21  1  0  0  0
  8  9  1  0  0  0
  8 26  1  0  0  0
  9 27  1  0  0  0
 11 20  1  0  0  0
 12 22  1  0  0  0
 13 14  1  0  0  0
 13 15  1  0  0  0
 14 16  1  0  0  0
 15 17  1  0  0  0
 16 18  1  0  0  0
 17 20  1  0  0  0
 18 20  1  0  0  0
 28 10  1  0  0  0
 28 21  1  0  0  0
  1  8  2  0  0  0
  2 10  2  0  0  0
  3  6  2  0  0  0
  4  9  2  0  0  0
  5  7  2  0  0  0
 11 19  2  0  0  0
 12 23  2  0  0  0
 28 24  2  0  0  0
 28 25  2  0  0  0
M  CHG  1  22  -1
M  END
> <rmsd>
0.688408613

$$$$
ZINC35397351


 29 31  0  0  0  0  0  0  0  0999 V2000
    0.6141    3.4994   -7.2520 C   0  0  0  0  0
    0.0118    2.5644   -6.4104 C   0  0  0  0  0
    1.9844    3.7426   -7.1571 C   0  0  0  0  0
    0.7797    1.8725   -5.4737 C   0  0  0  0  0
    2.7523    3.0508   -6.2204 C   0  0  0  0  0
   -3.2689   -2.5862    0.4420 C   0  0  0  0  0
   -2.4300   -2.2483   -1.7982 C   0  0  0  0  0
   -3.2252   -1.2102    0.6660 C   0  0  0  0  0
   -2.3862   -0.8722   -1.5744 C   0  0  0  0  0
    1.0047    0.7941   -0.3288 C   0  0  0  0  0
   -0.0191    2.6932   -1.3298 C   0  0  0  0  0
    2.0453    0.9108   -1.2435 C   0  0  0  0  0
   -2.8714   -3.1053   -0.7901 C   0  0  0  0  0
    2.1500    2.1157   -5.3787 C   0  0  0  0  0
   -0.0510    1.6983   -0.3660 C   0  0  0  0  0
   -2.7838   -0.3531   -0.3421 C   0  0  0  0  0
    1.9832    1.9409   -2.1682 C   0  0  0  0  0
    3.1624   -0.0482   -1.2021 C   0  0  0  0  0
   -2.9160   -4.5765   -1.0292 C   0  0  0  0  0
    4.1951    2.8784   -2.7918 C   0  0  0  0  0
    2.9764    1.3712   -4.3704 C   0  0  0  0  0
    0.9743    2.8383   -2.2352 N   0  0  0  0  0
   -1.1417    1.6034    0.5666 N   0  0  0  0  0
    3.0404    2.0662   -3.1041 N   0  0  0  0  0
    3.0781   -1.1268   -1.8999 O   0  0  0  0  0
    4.1851    0.2246   -0.4693 O   0  0  0  0  0
   -3.6846    1.6789    0.9939 O   0  0  0  0  0
   -2.8513    2.0543   -1.3436 O   0  0  0  0  0
   -2.7284    1.3694   -0.0626 S   0  0  0  0  0
  1  2  1  0  0  0
  3  5  1  0  0  0
  4 14  1  0  0  0
  6 13  1  0  0  0
  7  9  1  0  0  0
  8 16  1  0  0  0
 10 15  1  0  0  0
 11 22  1  0  0  0
 12 17  1  0  0  0
 12 18  1  0  0  0
 15 23  1  0  0  0
 17 24  1  0  0  0
 18 25  1  0  0  0
 19 13  1  0  0  0
 20 24  1  0  0  0
 21 14  1  0  0  0
 21 24  1  0  0  0
 29 16  1  0  0  0
 29 23  1  0  0  0
  1  3  2  0  0  0
  2  4  2  0  0  0
  5 14  2  0  0  0
  6  8  2  0  0  0
  7 13  2  0  0  0
  9 16  2  0  0  0
 10 12  2  0  0  0
 11 15  2  0  0  0
 17 22  2  0  0  0
 18 26  2  0  0  0
 29 27  2  0  0  0
 29 28  2  0  0  0
M  CHG  1  25  -1
M  END
> <rmsd>
0.69540298

$$$$
ZINC35397351


 29 31  0  0  0  0  0  0  0  0999 V2000
    0.0619    3.0945   -7.5798 C   0  0  0  0  0
   -0.5327    2.2217   -6.6689 C   0  0  0  0  0
    1.4500    3.2282   -7.6137 C   0  0  0  0  0
    0.2608    1.4824   -5.7915 C   0  0  0  0  0
    2.2435    2.4890   -6.7363 C   0  0  0  0  0
   -3.5687   -2.5611    0.5530 C   0  0  0  0  0
   -2.9141   -2.3203   -1.7600 C   0  0  0  0  0
   -3.3965   -1.1903    0.7446 C   0  0  0  0  0
   -2.7418   -0.9493   -1.5686 C   0  0  0  0  0
    0.8694    0.4552   -0.6672 C   0  0  0  0  0
   -0.0889    2.4174   -1.6097 C   0  0  0  0  0
    1.8280    0.4764   -1.6742 C   0  0  0  0  0
   -3.3276   -3.1261   -0.6993 C   0  0  0  0  0
    1.6488    1.6161   -5.8252 C   0  0  0  0  0
   -0.1107    1.4406   -0.6272 C   0  0  0  0  0
   -2.9829   -0.3844   -0.3162 C   0  0  0  0  0
    1.7629    1.4962   -2.6099 C   0  0  0  0  0
    2.8652   -0.5686   -1.7144 C   0  0  0  0  0
   -3.5096   -4.5919   -0.9039 C   0  0  0  0  0
    3.9755    2.2452   -3.4489 C   0  0  0  0  0
    2.5027    0.8206   -4.8808 C   0  0  0  0  0
    0.8260    2.4708   -2.6036 N   0  0  0  0  0
   -1.1157    1.4455    0.4015 N   0  0  0  0  0
    2.7368    1.5243   -3.6395 N   0  0  0  0  0
    2.6328   -1.6458   -2.3800 O   0  0  0  0  0
    3.9689   -0.3695   -1.0823 O   0  0  0  0  0
   -3.5950    1.7303    1.0547 O   0  0  0  0  0
   -2.9519    2.0078   -1.3555 O   0  0  0  0  0
   -2.7668    1.3316   -0.0773 S   0  0  0  0  0
  1  2  1  0  0  0
  3  5  1  0  0  0
  4 14  1  0  0  0
  6 13  1  0  0  0
  7  9  1  0  0  0
  8 16  1  0  0  0
 10 15  1  0  0  0
 11 22  1  0  0  0
 12 17  1  0  0  0
 12 18  1  0  0  0
 15 23  1  0  0  0
 17 24  1  0  0  0
 18 25  1  0  0  0
 19 13  1  0  0  0
 20 24  1  0  0  0
 21 14  1  0  0  0
 21 24  1  0  0  0
 29 16  1  0  0  0
 29 23  1  0  0  0
  1  3  2  0  0  0
  2  4  2  0  0  0
  5 14  2  0  0  0
  6  8  2  0  0  0
  7 13  2  0  0  0
  9 16  2  0  0  0
 10 12  2  0  0  0
 11 15  2  0  0  0
 17 22  2  0  0  0
 18 26  2  0  0  0
 29 27  2  0  0  0
 29 28  2  0  0  0
M  CHG  1  25  -1
M  END
> <rmsd>
0.513122737

$$$$
ZINC35397704


 27 29  0  0  0  0  0  0  0  0999 V2000
   -2.4217   -2.2342   -1.8036 C   0  0  0  0  0
   -2.3861   -0.8612   -1.5603 C   0  0  0  0  0
   -2.8582   -3.1079   -0.8077 C   0  0  0  0  0
    1.0011    0.7858   -0.3136 C   0  0  0  0  0
    0.0011    2.7113   -1.2879 C   0  0  0  0  0
    2.0504    0.9110   -1.2175 C   0  0  0  0  0
   -3.2233   -1.2357    0.6750 C   0  0  0  0  0
   -0.0469    1.6991   -0.3429 C   0  0  0  0  0
   -2.7869   -0.3619   -0.3210 C   0  0  0  0  0
   -3.2589   -2.6087    0.4315 C   0  0  0  0  0
    2.0044    1.9584   -2.1234 C   0  0  0  0  0
    3.1595   -0.0578   -1.1845 C   0  0  0  0  0
    4.2120    2.9109   -2.6474 C   0  0  0  0  0
    2.7869    2.0335   -4.4764 C   0  0  0  0  0
    5.4203    2.5326   -3.4963 C   0  0  0  0  0
    4.0714    1.7025   -5.2281 C   0  0  0  0  0
   -3.6514   -0.6927    2.0030 C   0  0  0  0  0
    1.0032    2.8651   -2.1820 N   0  0  0  0  0
    3.0564    2.0906   -3.0355 N   0  0  0  0  0
   -1.1363    1.5969    0.5701 N   0  0  0  0  0
    3.0724   -1.1225   -1.9028 O   0  0  0  0  0
    4.1780    0.1931   -0.4383 O   0  0  0  0  0
   -3.6914    1.6846    0.9904 O   0  0  0  0  0
   -2.8451    2.0356   -1.3463 O   0  0  0  0  0
    5.1037    2.6264   -4.8850 O   0  0  0  0  0
   -2.7295    1.3869   -0.0544 S   0  0  0  0  0
   -3.7873   -3.7254    1.6379 Cl  0  0  0  0  0
  1  2  1  0  0  0
  3 10  1  0  0  0
  4  8  1  0  0  0
  5 18  1  0  0  0
  6 11  1  0  0  0
  6 12  1  0  0  0
  7  9  1  0  0  0
  8 20  1  0  0  0
 10 27  1  0  0  0
 11 19  1  0  0  0
 12 21  1  0  0  0
 13 15  1  0  0  0
 13 19  1  0  0  0
 14 16  1  0  0  0
 14 19  1  0  0  0
 15 25  1  0  0  0
 16 25  1  0  0  0
 17  7  1  0  0  0
 26  9  1  0  0  0
 26 20  1  0  0  0
  1  3  2  0  0  0
  2  9  2  0  0  0
  4  6  2  0  0  0
  5  8  2  0  0  0
  7 10  2  0  0  0
 11 18  2  0  0  0
 12 22  2  0  0  0
 26 23  2  0  0  0
 26 24  2  0  0  0
M  CHG  1  21  -1
M  END
> <rmsd>
0.697790861

$$$$
ZINC35397704


 27 29  0  0  0  0  0  0  0  0999 V2000
   -2.9053   -2.3035   -1.7709 C   0  0  0  0  0
   -2.7412   -0.9348   -1.5576 C   0  0  0  0  0
   -3.3128   -3.1288   -0.7228 C   0  0  0  0  0
    0.8648    0.4551   -0.6604 C   0  0  0  0  0
   -0.0705    2.4419   -1.5738 C   0  0  0  0  0
    1.8314    0.4871   -1.6596 C   0  0  0  0  0
   -3.3919   -1.2169    0.7521 C   0  0  0  0  0
   -0.1078    1.4475   -0.6098 C   0  0  0  0  0
   -2.9845   -0.3915   -0.2961 C   0  0  0  0  0
   -3.5560   -2.5855    0.5386 C   0  0  0  0  0
    1.7817    1.5245   -2.5768 C   0  0  0  0  0
    2.8606   -0.5654   -1.7112 C   0  0  0  0  0
    3.9974    2.2945   -3.3203 C   0  0  0  0  0
    2.3439    1.5110   -4.9931 C   0  0  0  0  0
    5.0882    1.8128   -4.2700 C   0  0  0  0  0
    3.5230    1.0715   -5.8539 C   0  0  0  0  0
   -3.6505   -0.6268    2.1037 C   0  0  0  0  0
    0.8524    2.5063   -2.5595 N   0  0  0  0  0
    2.7508    1.5632   -3.5846 N   0  0  0  0  0
   -1.1115    1.4416    0.4018 N   0  0  0  0  0
    2.6247   -1.6282   -2.3983 O   0  0  0  0  0
    3.9608   -0.3869   -1.0671 O   0  0  0  0  0
   -3.6016    1.7346    1.0548 O   0  0  0  0  0
   -2.9532    1.9913   -1.3563 O   0  0  0  0  0
    4.6511    1.9153   -5.6251 O   0  0  0  0  0
   -2.7676    1.3503   -0.0687 S   0  0  0  0  0
   -4.0536   -3.6435    1.8093 Cl  0  0  0  0  0
  1  2  1  0  0  0
  3 10  1  0  0  0
  4  8  1  0  0  0
  5 18  1  0  0  0
  6 11  1  0  0  0
  6 12  1  0  0  0
  7  9  1  0  0  0
  8 20  1  0  0  0
 10 27  1  0  0  0
 11 19  1  0  0  0
 12 21  1  0  0  0
 13 15  1  0  0  0
 13 19  1  0  0  0
 14 16  1  0  0  0
 14 19  1  0  0  0
 15 25  1  0  0  0
 16 25  1  0  0  0
 17  7  1  0  0  0
 26  9  1  0  0  0
 26 20  1  0  0  0
  1  3  2  0  0  0
  2  9  2  0  0  0
  4  6  2  0  0  0
  5  8  2  0  0  0
  7 10  2  0  0  0
 11 18  2  0  0  0
 12 22  2  0  0  0
 26 23  2  0  0  0
 26 24  2  0  0  0
M  CHG  1  21  -1
M  END
> <rmsd>
0.517220199

$$$$
ZINC35397459


 27 29  0  0  0  0  0  0  0  0999 V2000
   -3.2813   -2.5842    0.4537 C   0  0  0  0  0
   -3.2319   -1.2078    0.6737 C   0  0  0  0  0
    1.0048    0.7848   -0.3094 C   0  0  0  0  0
   -2.3883   -0.8800   -1.5664 C   0  0  0  0  0
    0.0113    2.7188   -1.2733 C   0  0  0  0  0
    2.0570    0.9141   -1.2090 C   0  0  0  0  0
   -0.0415    1.7002   -0.3356 C   0  0  0  0  0
   -2.8842   -3.1086   -0.7763 C   0  0  0  0  0
   -2.7854   -0.3556   -0.3362 C   0  0  0  0  0
   -2.4376   -2.2564   -1.7864 C   0  0  0  0  0
    2.0158    1.9678   -2.1079 C   0  0  0  0  0
    3.1641   -0.0569   -1.1794 C   0  0  0  0  0
    4.5714    1.6718   -4.8085 C   0  0  0  0  0
    4.9701    2.9766   -4.1491 C   0  0  0  0  0
    3.1267    1.4936   -4.3556 C   0  0  0  0  0
    4.3009    2.8812   -2.7827 C   0  0  0  0  0
   -1.7810   -5.2097   -0.6201 C   0  0  0  0  0
    1.0166    2.8768   -2.1633 N   0  0  0  0  0
    3.0779    2.1052   -3.0218 N   0  0  0  0  0
   -1.1338    1.5938    0.5734 N   0  0  0  0  0
    3.0772   -1.1166   -1.9052 O   0  0  0  0  0
    4.1808    0.1867   -0.4282 O   0  0  0  0  0
   -3.6900    1.6835    0.9864 O   0  0  0  0  0
   -2.8360    2.0491   -1.3451 O   0  0  0  0  0
   -2.9428   -4.4575   -0.9632 O   0  0  0  0  0
   -2.7254    1.3912   -0.0574 S   0  0  0  0  0
   -1.9401   -2.8776   -3.3170 Cl  0  0  0  0  0
  1  8  1  0  0  0
  2  9  1  0  0  0
  3  7  1  0  0  0
  4 10  1  0  0  0
  5 18  1  0  0  0
  6 11  1  0  0  0
  6 12  1  0  0  0
  7 20  1  0  0  0
  8 25  1  0  0  0
 10 27  1  0  0  0
 11 19  1  0  0  0
 12 21  1  0  0  0
 13 14  1  0  0  0
 13 15  1  0  0  0
 14 16  1  0  0  0
 15 19  1  0  0  0
 16 19  1  0  0  0
 17 25  1  0  0  0
 26  9  1  0  0  0
 26 20  1  0  0  0
  1  2  2  0  0  0
  3  6  2  0  0  0
  4  9  2  0  0  0
  5  7  2  0  0  0
  8 10  2  0  0  0
 11 18  2  0  0  0
 12 22  2  0  0  0
 26 23  2  0  0  0
 26 24  2  0  0  0
M  CHG  1  21  -1
M  END
> <rmsd>
0.687991142

$$$$
ZINC35397459


 27 29  0  0  0  0  0  0  0  0999 V2000
   -3.5717   -2.5596    0.5597 C   0  0  0  0  0
   -3.3966   -1.1890    0.7496 C   0  0  0  0  0
    0.8685    0.4571   -0.6596 C   0  0  0  0  0
   -2.7453   -0.9516   -1.5649 C   0  0  0  0  0
   -0.0605    2.4523   -1.5611 C   0  0  0  0  0
    1.8380    0.4946   -1.6556 C   0  0  0  0  0
   -0.1024    1.4509   -0.6045 C   0  0  0  0  0
   -3.3336   -3.1264   -0.6924 C   0  0  0  0  0
   -2.9834   -0.3849   -0.3127 C   0  0  0  0  0
   -2.9204   -2.3223   -1.7547 C   0  0  0  0  0
    1.7929    1.5387   -2.5653 C   0  0  0  0  0
    2.8654   -0.5593   -1.7119 C   0  0  0  0  0
    4.0523    1.0160   -5.4867 C   0  0  0  0  0
    4.6101    2.2927   -4.8907 C   0  0  0  0  0
    2.6474    0.9556   -4.8980 C   0  0  0  0  0
    4.0674    2.2642   -3.4665 C   0  0  0  0  0
   -2.3847   -5.3052   -0.6022 C   0  0  0  0  0
    0.8655    2.5221   -2.5436 N   0  0  0  0  0
    2.7715    1.5832   -3.5766 N   0  0  0  0  0
   -1.1091    1.4396    0.4041 N   0  0  0  0  0
    2.6296   -1.6166   -2.4074 O   0  0  0  0  0
    3.9640   -0.3876   -1.0632 O   0  0  0  0  0
   -3.6006    1.7324    1.0519 O   0  0  0  0  0
   -2.9447    2.0057   -1.3553 O   0  0  0  0  0
   -3.5127   -4.4685   -0.8489 O   0  0  0  0  0
   -2.7639    1.3548   -0.0720 S   0  0  0  0  0
   -2.6185   -2.9965   -3.3137 Cl  0  0  0  0  0
  1  8  1  0  0  0
  2  9  1  0  0  0
  3  7  1  0  0  0
  4 10  1  0  0  0
  5 18  1  0  0  0
  6 11  1  0  0  0
  6 12  1  0  0  0
  7 20  1  0  0  0
  8 25  1  0  0  0
 10 27  1  0  0  0
 11 19  1  0  0  0
 12 21  1  0  0  0
 13 14  1  0  0  0
 13 15  1  0  0  0
 14 16  1  0  0  0
 15 19  1  0  0  0
 16 19  1  0  0  0
 17 25  1  0  0  0
 26  9  1  0  0  0
 26 20  1  0  0  0
  1  2  2  0  0  0
  3  6  2  0  0  0
  4  9  2  0  0  0
  5  7  2  0  0  0
  8 10  2  0  0  0
 11 18  2  0  0  0
 12 22  2  0  0  0
 26 23  2  0  0  0
 26 24  2  0  0  0
M  CHG  1  21  -1
M  END
> <rmsd>
0.509243965

$$$$
ZINC35397391


 27 28  0  0  0  0  0  0  0  0999 V2000
   -2.8429   -2.2037   -1.8803 C   0  0  0  0  0
   -2.8699   -3.1082   -0.8187 C   0  0  0  0  0
   -2.7999   -0.8326   -1.6273 C   0  0  0  0  0
   -2.8540   -2.6417    0.4956 C   0  0  0  0  0
    1.0020    0.7882   -0.3157 C   0  0  0  0  0
   -0.0030    2.7083   -1.2954 C   0  0  0  0  0
    2.0496    0.9119   -1.2215 C   0  0  0  0  0
   -0.0477    1.6995   -0.3467 C   0  0  0  0  0
   -2.7840   -0.3661   -0.3129 C   0  0  0  0  0
   -2.8111   -1.2706    0.7486 C   0  0  0  0  0
    2.0003    1.9558   -2.1312 C   0  0  0  0  0
    3.1604   -0.0549   -1.1867 C   0  0  0  0  0
    2.1364    1.5245   -6.7072 C   0  0  0  0  0
    5.0362    5.2301   -2.0734 C   0  0  0  0  0
    2.1935    2.2133   -5.3511 C   0  0  0  0  0
    3.8342    4.3600   -2.4126 C   0  0  0  0  0
    3.0240    1.4412   -4.3330 C   0  0  0  0  0
    4.2173    2.9140   -2.7034 C   0  0  0  0  0
    0.9976    2.8606   -2.1916 N   0  0  0  0  0
   -1.1355    1.5988    0.5685 N   0  0  0  0  0
    3.0559    2.0870   -3.0500 N   0  0  0  0  0
    3.0740   -1.1224   -1.9009 O   0  0  0  0  0
    4.1797    0.2005   -0.4430 O   0  0  0  0  0
   -3.6901    1.6837    0.9924 O   0  0  0  0  0
   -2.8480    2.0276   -1.3468 O   0  0  0  0  0
   -2.7293    1.3838   -0.0528 S   0  0  0  0  0
   -2.7937   -0.7456    2.3938 Cl  0  0  0  0  0
  1  2  1  0  0  0
  3  9  1  0  0  0
  4 10  1  0  0  0
  5  8  1  0  0  0
  6 19  1  0  0  0
  7 11  1  0  0  0
  7 12  1  0  0  0
  8 20  1  0  0  0
 10 27  1  0  0  0
 11 21  1  0  0  0
 12 22  1  0  0  0
 13 15  1  0  0  0
 14 16  1  0  0  0
 15 17  1  0  0  0
 16 18  1  0  0  0
 17 21  1  0  0  0
 18 21  1  0  0  0
 26  9  1  0  0  0
 26 20  1  0  0  0
  1  3  2  0  0  0
  2  4  2  0  0  0
  5  7  2  0  0  0
  6  8  2  0  0  0
  9 10  2  0  0  0
 11 19  2  0  0  0
 12 23  2  0  0  0
 26 24  2  0  0  0
 26 25  2  0  0  0
M  CHG  1  22  -1
M  END
> <rmsd>
0.695496321

$$$$
ZINC35397391


 27 28  0  0  0  0  0  0  0  0999 V2000
   -3.3279   -2.2414   -1.8084 C   0  0  0  0  0
   -3.3260   -3.1285   -0.7320 C   0  0  0  0  0
   -3.1556   -0.8751   -1.5864 C   0  0  0  0  0
   -3.1517   -2.6494    0.5663 C   0  0  0  0  0
    0.8660    0.4560   -0.6606 C   0  0  0  0  0
   -0.0740    2.4379   -1.5799 C   0  0  0  0  0
    1.8312    0.4861   -1.6611 C   0  0  0  0  0
   -0.1082    1.4469   -0.6122 C   0  0  0  0  0
   -2.9812   -0.3960   -0.2880 C   0  0  0  0  0
   -2.9793   -1.2831    0.7883 C   0  0  0  0  0
    1.7784    1.5201   -2.5819 C   0  0  0  0  0
    2.8622   -0.5647   -1.7103 C   0  0  0  0  0
    1.4540    1.0263   -7.1421 C   0  0  0  0  0
    5.0509    4.5452   -2.8651 C   0  0  0  0  0
    1.6904    1.7241   -5.8103 C   0  0  0  0  0
    3.7589    3.7687   -3.0759 C   0  0  0  0  0
    2.5497    0.9008   -4.8583 C   0  0  0  0  0
    4.0001    2.2937   -3.3735 C   0  0  0  0  0
    0.8475    2.5003   -2.5670 N   0  0  0  0  0
   -1.1106    1.4429    0.4008 N   0  0  0  0  0
    2.7509    1.5570   -3.5962 N   0  0  0  0  0
    2.6273   -1.6304   -2.3933 O   0  0  0  0  0
    3.9630   -0.3819   -1.0683 O   0  0  0  0  0
   -3.6003    1.7339    1.0561 O   0  0  0  0  0
   -2.9556    1.9832   -1.3567 O   0  0  0  0  0
   -2.7671    1.3470   -0.0672 S   0  0  0  0  0
   -2.7682   -0.7421    2.4147 Cl  0  0  0  0  0
  1  2  1  0  0  0
  3  9  1  0  0  0
  4 10  1  0  0  0
  5  8  1  0  0  0
  6 19  1  0  0  0
  7 11  1  0  0  0
  7 12  1  0  0  0
  8 20  1  0  0  0
 10 27  1  0  0  0
 11 21  1  0  0  0
 12 22  1  0  0  0
 13 15  1  0  0  0
 14 16  1  0  0  0
 15 17  1  0  0  0
 16 18  1  0  0  0
 17 21  1  0  0  0
 18 21  1  0  0  0
 26  9  1  0  0  0
 26 20  1  0  0  0
  1  3  2  0  0  0
  2  4  2  0  0  0
  5  7  2  0  0  0
  6  8  2  0  0  0
  9 10  2  0  0  0
 11 19  2  0  0  0
 12 23  2  0  0  0
 26 24  2  0  0  0
 26 25  2  0  0  0
M  CHG  1  22  -1
M  END
> <rmsd>
0.514797688

$$$$
ZINC02866618


 29 32  0  0  0  0  0  0  0  0999 V2000
   -2.7956   -2.0431    3.1351 C   0  0  0  0  0
   -2.7843   -0.9977    2.1816 C   0  0  0  0  0
   -2.9739   -3.3844    2.7540 C   0  0  0  0  0
   -3.3280   -2.2643   -1.8497 C   0  0  0  0  0
   -0.1486    2.4483   -1.6393 C   0  0  0  0  0
    0.8129    2.4468   -2.6497 C   0  0  0  0  0
   -3.1597   -0.8907   -1.5982 C   0  0  0  0  0
    0.8558    0.4713   -0.6804 C   0  0  0  0  0
   -2.9541   -1.2831    0.8099 C   0  0  0  0  0
   -3.1258   -2.6267    0.4951 C   0  0  0  0  0
   -3.1381   -3.6460    1.4105 C   0  0  0  0  0
    1.8173    0.4696   -1.6909 C   0  0  0  0  0
   -3.3064   -3.1209   -0.7680 C   0  0  0  0  0
   -0.1272    1.4606   -0.6546 C   0  0  0  0  0
    1.7958    1.4574   -2.6756 C   0  0  0  0  0
   -2.9741   -0.3962   -0.2865 C   0  0  0  0  0
   -3.3450   -4.9047    0.6625 C   0  0  0  0  0
    2.8489   -0.5829   -1.7030 C   0  0  0  0  0
   -5.1006   -5.5571   -2.0955 C   0  0  0  0  0
   -3.6478   -5.3785   -1.8123 C   0  0  0  0  0
   -3.4417   -4.5162   -0.6760 N   0  0  0  0  0
   -1.1188    1.4626    0.3871 N   0  0  0  0  0
    2.6116   -1.6731   -2.3442 O   0  0  0  0  0
   -3.4078   -6.0083    1.1694 O   0  0  0  0  0
    3.9509   -0.3750   -1.0717 O   0  0  0  0  0
   -3.5920    1.7248    1.0721 O   0  0  0  0  0
   -2.9858    1.9857   -1.3495 O   0  0  0  0  0
    2.7265    1.4728   -3.6710 O   0  0  0  0  0
   -2.7744    1.3291   -0.0668 S   0  0  0  0  0
  1  3  1  0  0  0
  2  9  1  0  0  0
  4 13  1  0  0  0
  5 14  1  0  0  0
  6 15  1  0  0  0
  7 16  1  0  0  0
  8 12  1  0  0  0
  9 10  1  0  0  0
 10 11  1  0  0  0
 11 17  1  0  0  0
 12 18  1  0  0  0
 13 21  1  0  0  0
 14 22  1  0  0  0
 15 28  1  0  0  0
 17 21  1  0  0  0
 18 23  1  0  0  0
 19 20  1  0  0  0
 20 21  1  0  0  0
 29 16  1  0  0  0
 29 22  1  0  0  0
  1  2  2  0  0  0
  3 11  2  0  0  0
  4  7  2  0  0  0
  5  6  2  0  0  0
  8 14  2  0  0  0
  9 16  2  0  0  0
 10 13  2  0  0  0
 12 15  2  0  0  0
 17 24  2  0  0  0
 18 25  2  0  0  0
 29 26  2  0  0  0
 29 27  2  0  0  0
M  CHG  1  23  -1
M  END
> <rmsd>
0.532546699

$$$$
ZINC02866618


 29 32  0  0  0  0  0  0  0  0999 V2000
   -2.7676   -2.0640    3.0861 C   0  0  0  0  0
   -2.7570   -1.0010    2.1523 C   0  0  0  0  0
   -2.8014   -3.4069    2.6715 C   0  0  0  0  0
   -2.8357   -2.2205   -1.9290 C   0  0  0  0  0
   -0.0822    2.7255   -1.3662 C   0  0  0  0  0
    0.9621    2.8224   -2.2857 C   0  0  0  0  0
   -2.8028   -0.8435   -1.6440 C   0  0  0  0  0
    0.9909    0.8151   -0.3486 C   0  0  0  0  0
   -2.7805   -1.2696    0.7670 C   0  0  0  0  0
   -2.8135   -2.6156    0.4190 C   0  0  0  0  0
   -2.8238   -3.6519    1.3151 C   0  0  0  0  0
    2.0352    0.9118   -1.2682 C   0  0  0  0  0
   -2.8404   -3.0955   -0.8620 C   0  0  0  0  0
   -0.0679    1.7218   -0.3976 C   0  0  0  0  0
    2.0208    1.9155   -2.2368 C   0  0  0  0  0
   -2.7753   -0.3639   -0.3141 C   0  0  0  0  0
   -2.8602   -4.9069    0.5338 C   0  0  0  0  0
    3.1462   -0.0544   -1.2021 C   0  0  0  0  0
   -4.3051   -5.6384   -2.3802 C   0  0  0  0  0
   -2.9026   -5.3504   -1.9646 C   0  0  0  0  0
   -2.8692   -4.4988   -0.8024 N   0  0  0  0  0
   -1.1448    1.6223    0.5503 N   0  0  0  0  0
    3.0564   -1.1462   -1.8774 O   0  0  0  0  0
   -2.8777   -6.0226    1.0174 O   0  0  0  0  0
    4.1672    0.2273   -0.4711 O   0  0  0  0  0
   -3.6822    1.6714    1.0130 O   0  0  0  0  0
   -2.8867    2.0316   -1.3400 O   0  0  0  0  0
    3.0318    2.0266   -3.1439 O   0  0  0  0  0
   -2.7372    1.3667   -0.0530 S   0  0  0  0  0
  1  3  1  0  0  0
  2  9  1  0  0  0
  4 13  1  0  0  0
  5 14  1  0  0  0
  6 15  1  0  0  0
  7 16  1  0  0  0
  8 12  1  0  0  0
  9 10  1  0  0  0
 10 11  1  0  0  0
 11 17  1  0  0  0
 12 18  1  0  0  0
 13 21  1  0  0  0
 14 22  1  0  0  0
 15 28  1  0  0  0
 17 21  1  0  0  0
 18 23  1  0  0  0
 19 20  1  0  0  0
 20 21  1  0  0  0
 29 16  1  0  0  0
 29 22  1  0  0  0
  1  2  2  0  0  0
  3 11  2  0  0  0
  4  7  2  0  0  0
  5  6  2  0  0  0
  8 14  2  0  0  0
  9 16  2  0  0  0
 10 13  2  0  0  0
 12 15  2  0  0  0
 17 24  2  0  0  0
 18 25  2  0  0  0
 29 26  2  0  0  0
 29 27  2  0  0  0
M  CHG  1  23  -1
M  END
> <rmsd>
0.717597723

$$$$
ZINC02866618


 29 32  0  0  0  0  0  0  0  0999 V2000
   -3.7287   -2.5134    0.9217 C   0  0  0  0  0
   -3.3612   -1.1796    0.6248 C   0  0  0  0  0
   -3.9885   -3.4485   -0.0954 C   0  0  0  0  0
   -3.1227   -0.2862   -3.5340 C   0  0  0  0  0
    0.5119    2.9404   -0.5775 C   0  0  0  0  0
    1.6716    3.1866   -1.3123 C   0  0  0  0  0
   -2.8383    0.7385   -2.6134 C   0  0  0  0  0
    1.0006    0.5744   -0.5991 C   0  0  0  0  0
   -3.2463   -0.7541   -0.7159 C   0  0  0  0  0
   -3.5153   -1.7231   -1.6763 C   0  0  0  0  0
   -3.8715   -3.0168   -1.3994 C   0  0  0  0  0
    2.1603    0.8206   -1.3341 C   0  0  0  0  0
   -3.4632   -1.5244   -3.0291 C   0  0  0  0  0
    0.1763    1.6342   -0.2209 C   0  0  0  0  0
    2.4958    2.1268   -1.6907 C   0  0  0  0  0
   -2.8968    0.5166   -1.2181 C   0  0  0  0  0
   -4.0636   -3.7055   -2.6938 C   0  0  0  0  0
    3.0199   -0.3109   -1.7252 C   0  0  0  0  0
   -5.2066   -2.5969   -5.6227 C   0  0  0  0  0
   -3.8476   -2.9033   -5.0918 C   0  0  0  0  0
   -3.7977   -2.7335   -3.6615 N   0  0  0  0  0
   -1.0195    1.3808    0.5368 N   0  0  0  0  0
    2.7960   -0.8973   -2.8487 O   0  0  0  0  0
   -4.3855   -4.8718   -2.8158 O   0  0  0  0  0
    3.9643   -0.6731   -0.9296 O   0  0  0  0  0
   -3.5277    1.8508    0.9144 O   0  0  0  0  0
   -2.3511    3.0529   -0.9484 O   0  0  0  0  0
    3.6245    2.3876   -2.4084 O   0  0  0  0  0
   -2.5288    1.8506   -0.1460 S   0  0  0  0  0
  1  3  1  0  0  0
  2  9  1  0  0  0
  4 13  1  0  0  0
  5 14  1  0  0  0
  6 15  1  0  0  0
  7 16  1  0  0  0
  8 12  1  0  0  0
  9 10  1  0  0  0
 10 11  1  0  0  0
 11 17  1  0  0  0
 12 18  1  0  0  0
 13 21  1  0  0  0
 14 22  1  0  0  0
 15 28  1  0  0  0
 17 21  1  0  0  0
 18 23  1  0  0  0
 19 20  1  0  0  0
 20 21  1  0  0  0
 29 16  1  0  0  0
 29 22  1  0  0  0
  1  2  2  0  0  0
  3 11  2  0  0  0
  4  7  2  0  0  0
  5  6  2  0  0  0
  8 14  2  0  0  0
  9 16  2  0  0  0
 10 13  2  0  0  0
 12 15  2  0  0  0
 17 24  2  0  0  0
 18 25  2  0  0  0
 29 26  2  0  0  0
 29 27  2  0  0  0
M  CHG  1  23  -1
M  END
> <rmsd>
0.462970734

$$$$
ZINC02866618


 29 32  0  0  0  0  0  0  0  0999 V2000
   -3.6612   -2.5096    0.9272 C   0  0  0  0  0
   -3.2996   -1.1737    0.6325 C   0  0  0  0  0
   -3.7632   -3.4836   -0.0814 C   0  0  0  0  0
   -2.5681   -0.4000   -3.4927 C   0  0  0  0  0
    0.5685    3.0373   -0.2202 C   0  0  0  0  0
    1.8033    3.3003   -0.8131 C   0  0  0  0  0
   -2.4323    0.6614   -2.5798 C   0  0  0  0  0
    1.1267    0.6898   -0.0991 C   0  0  0  0  0
   -3.0302   -0.7857   -0.6974 C   0  0  0  0  0
   -3.1474   -1.7922   -1.6498 C   0  0  0  0  0
   -3.4966   -3.0882   -1.3748 C   0  0  0  0  0
    2.3615    0.9528   -0.6921 C   0  0  0  0  0
   -2.9319   -1.6332   -2.9916 C   0  0  0  0  0
    0.2301    1.7319    0.1368 C   0  0  0  0  0
    2.6998    2.2581   -1.0491 C   0  0  0  0  0
   -2.6587    0.4803   -1.1958 C   0  0  0  0  0
   -3.5040   -3.8222   -2.6585 C   0  0  0  0  0
    3.2970   -0.1602   -0.9339 C   0  0  0  0  0
   -4.3032   -2.8431   -5.7434 C   0  0  0  0  0
   -3.0129   -3.0867   -5.0373 C   0  0  0  0  0
   -3.1480   -2.8717   -3.6186 N   0  0  0  0  0
   -1.0432    1.4612    0.7481 N   0  0  0  0  0
    3.2335   -0.7879   -2.0556 O   0  0  0  0  0
   -3.7729   -5.0020   -2.7792 O   0  0  0  0  0
    4.1445   -0.4655   -0.0149 O   0  0  0  0  0
   -3.5919    1.8567    0.7942 O   0  0  0  0  0
   -2.2275    3.0407   -0.9482 O   0  0  0  0  0
    3.9013    2.5352   -1.6294 O   0  0  0  0  0
   -2.4684    1.8582   -0.1330 S   0  0  0  0  0
  1  3  1  0  0  0
  2  9  1  0  0  0
  4 13  1  0  0  0
  5 14  1  0  0  0
  6 15  1  0  0  0
  7 16  1  0  0  0
  8 12  1  0  0  0
  9 10  1  0  0  0
 10 11  1  0  0  0
 11 17  1  0  0  0
 12 18  1  0  0  0
 13 21  1  0  0  0
 14 22  1  0  0  0
 15 28  1  0  0  0
 17 21  1  0  0  0
 18 23  1  0  0  0
 19 20  1  0  0  0
 20 21  1  0  0  0
 29 16  1  0  0  0
 29 22  1  0  0  0
  1  2  2  0  0  0
  3 11  2  0  0  0
  4  7  2  0  0  0
  5  6  2  0  0  0
  8 14  2  0  0  0
  9 16  2  0  0  0
 10 13  2  0  0  0
 12 15  2  0  0  0
 17 24  2  0  0  0
 18 25  2  0  0  0
 29 26  2  0  0  0
 29 27  2  0  0  0
M  CHG  1  23  -1
M  END
> <rmsd>
0.522776604

$$$$
ZINC64580554


 28 30  0  0  0  0  0  0  0  0999 V2000
    0.8690    2.5254   -2.5701 C   0  0  0  0  0
   -0.1070    2.5019   -1.5739 C   0  0  0  0  0
   -3.5398   -2.5652    0.5399 C   0  0  0  0  0
   -3.3764   -1.1942    0.7375 C   0  0  0  0  0
    0.8583    0.4773   -0.6761 C   0  0  0  0  0
   -2.7415   -0.9360   -1.5793 C   0  0  0  0  0
    1.8342    0.5007   -1.6724 C   0  0  0  0  0
    1.8396    1.5247   -2.6195 C   0  0  0  0  0
   -0.1124    1.4779   -0.6268 C   0  0  0  0  0
   -3.3040   -3.1217   -0.7173 C   0  0  0  0  0
   -2.9049   -2.3070   -1.7769 C   0  0  0  0  0
   -2.9773   -0.3795   -0.3221 C   0  0  0  0  0
    2.8489   -0.5695   -1.7019 C   0  0  0  0  0
    4.0529    2.2964   -3.3455 C   0  0  0  0  0
    2.3962    1.5207   -5.0334 C   0  0  0  0  0
    5.1860    1.7874   -4.2262 C   0  0  0  0  0
    3.5337    1.0178   -5.9131 C   0  0  0  0  0
    5.8833    1.4909   -6.6025 C   0  0  0  0  0
    2.8100    1.5663   -3.6273 N   0  0  0  0  0
   -1.1115    1.4542    0.3927 N   0  0  0  0  0
    4.7620    1.8570   -5.6713 N   0  0  0  0  0
    2.6043   -1.6326   -2.3835 O   0  0  0  0  0
    3.9419   -0.4010   -1.0446 O   0  0  0  0  0
   -3.5973    1.7233    1.0633 O   0  0  0  0  0
   -2.9651    2.0187   -1.3476 O   0  0  0  0  0
   -3.4610   -4.4383   -0.9077 F   0  0  0  0  0
   -2.6797   -2.8412   -2.9844 F   0  0  0  0  0
   -2.7682    1.3600   -0.0707 S   0  0  0  0  0
  1  8  1  0  0  0
  2  9  1  0  0  0
  3 10  1  0  0  0
  4 12  1  0  0  0
  5  7  1  0  0  0
  6 11  1  0  0  0
  7 13  1  0  0  0
  8 19  1  0  0  0
  9 20  1  0  0  0
 10 26  1  0  0  0
 11 27  1  0  0  0
 13 22  1  0  0  0
 14 16  1  0  0  0
 14 19  1  0  0  0
 15 17  1  0  0  0
 15 19  1  0  0  0
 16 21  1  0  0  0
 17 21  1  0  0  0
 18 21  1  0  0  0
 28 12  1  0  0  0
 28 20  1  0  0  0
  1  2  2  0  0  0
  3  4  2  0  0  0
  5  9  2  0  0  0
  6 12  2  0  0  0
  7  8  2  0  0  0
 10 11  2  0  0  0
 13 23  2  0  0  0
 28 24  2  0  0  0
 28 25  2  0  0  0
M  CHG  2  21   1  22  -1
M  END
> <rmsd>
0.526526928

$$$$
ZINC64580554


 28 30  0  0  0  0  0  0  0  0999 V2000
    1.0213    2.8845   -2.1893 C   0  0  0  0  0
   -0.0383    2.7674   -1.2898 C   0  0  0  0  0
   -3.2447   -2.5876    0.4339 C   0  0  0  0  0
   -3.2084   -1.2119    0.6615 C   0  0  0  0  0
    0.9951    0.8068   -0.3280 C   0  0  0  0  0
   -2.3831   -0.8625   -1.5821 C   0  0  0  0  0
    2.0546    0.9239   -1.2276 C   0  0  0  0  0
    2.0677    1.9627   -2.1583 C   0  0  0  0  0
   -0.0514    1.7286   -0.3590 C   0  0  0  0  0
   -2.8501   -3.1007   -0.8017 C   0  0  0  0  0
   -2.4194   -2.2382   -1.8097 C   0  0  0  0  0
   -2.7777   -0.3494   -0.3465 C   0  0  0  0  0
    3.1485   -0.0642   -1.1735 C   0  0  0  0  0
    4.2716    2.9160   -2.6639 C   0  0  0  0  0
    2.8450    2.0465   -4.5090 C   0  0  0  0  0
    5.5181    2.5123   -3.4397 C   0  0  0  0  0
    4.0953    1.6493   -5.2833 C   0  0  0  0  0
    6.4545    2.3146   -5.7429 C   0  0  0  0  0
    3.1214    2.0977   -3.0697 N   0  0  0  0  0
   -1.1361    1.6091    0.5615 N   0  0  0  0  0
    5.2262    2.5759   -4.9175 N   0  0  0  0  0
    3.0524   -1.1301   -1.8871 O   0  0  0  0  0
    4.1590    0.1756   -0.4144 O   0  0  0  0  0
   -3.6869    1.6733    0.9981 O   0  0  0  0  0
   -2.8583    2.0613   -1.3391 O   0  0  0  0  0
   -2.8850   -4.4217   -1.0210 F   0  0  0  0  0
   -2.0416   -2.7308   -2.9966 F   0  0  0  0  0
   -2.7299    1.3961   -0.0569 S   0  0  0  0  0
  1  8  1  0  0  0
  2  9  1  0  0  0
  3 10  1  0  0  0
  4 12  1  0  0  0
  5  7  1  0  0  0
  6 11  1  0  0  0
  7 13  1  0  0  0
  8 19  1  0  0  0
  9 20  1  0  0  0
 10 26  1  0  0  0
 11 27  1  0  0  0
 13 22  1  0  0  0
 14 16  1  0  0  0
 14 19  1  0  0  0
 15 17  1  0  0  0
 15 19  1  0  0  0
 16 21  1  0  0  0
 17 21  1  0  0  0
 18 21  1  0  0  0
 28 12  1  0  0  0
 28 20  1  0  0  0
  1  2  2  0  0  0
  3  4  2  0  0  0
  5  9  2  0  0  0
  6 12  2  0  0  0
  7  8  2  0  0  0
 10 11  2  0  0  0
 13 23  2  0  0  0
 28 24  2  0  0  0
 28 25  2  0  0  0
M  CHG  2  21   1  22  -1
M  END
> <rmsd>
0.707416236

$$$$
ZINC64580554


 28 30  0  0  0  0  0  0  0  0999 V2000
    1.0207    2.8832   -2.1904 C   0  0  0  0  0
   -0.0387    2.7662   -1.2906 C   0  0  0  0  0
   -2.4227   -2.2392   -1.8101 C   0  0  0  0  0
   -2.3841   -0.8638   -1.5816 C   0  0  0  0  0
    0.9953    0.8063   -0.3281 C   0  0  0  0  0
   -3.2090   -1.2133    0.6622 C   0  0  0  0  0
    2.0546    0.9232   -1.2280 C   0  0  0  0  0
    2.0673    1.9617   -2.1592 C   0  0  0  0  0
   -0.0514    1.7278   -0.3594 C   0  0  0  0  0
   -2.8546   -3.1017   -0.8025 C   0  0  0  0  0
   -3.2477   -2.5888    0.4337 C   0  0  0  0  0
   -2.7772   -0.3508   -0.3455 C   0  0  0  0  0
    3.1487   -0.0646   -1.1737 C   0  0  0  0  0
    4.2709    2.9152   -2.6656 C   0  0  0  0  0
    2.8442    2.0445   -4.5100 C   0  0  0  0  0
    5.5174    2.5114   -3.4414 C   0  0  0  0  0
    4.0945    1.6473   -5.2844 C   0  0  0  0  0
    6.4534    2.3130   -5.7447 C   0  0  0  0  0
    3.1208    2.0965   -3.0708 N   0  0  0  0  0
   -1.1359    1.6084    0.5614 N   0  0  0  0  0
    5.2252    2.5744   -4.9191 N   0  0  0  0  0
    3.0528   -1.1308   -1.8868 O   0  0  0  0  0
    4.1593    0.1758   -0.4148 O   0  0  0  0  0
   -3.6867    1.6722    0.9983 O   0  0  0  0  0
   -2.8586    2.0594   -1.3392 O   0  0  0  0  0
   -2.8917   -4.4228   -1.0211 F   0  0  0  0  0
   -3.6612   -3.4170    1.4016 F   0  0  0  0  0
   -2.7298    1.3947   -0.0567 S   0  0  0  0  0
  1  8  1  0  0  0
  2  9  1  0  0  0
  3 10  1  0  0  0
  4 12  1  0  0  0
  5  7  1  0  0  0
  6 11  1  0  0  0
  7 13  1  0  0  0
  8 19  1  0  0  0
  9 20  1  0  0  0
 10 26  1  0  0  0
 11 27  1  0  0  0
 13 22  1  0  0  0
 14 16  1  0  0  0
 14 19  1  0  0  0
 15 17  1  0  0  0
 15 19  1  0  0  0
 16 21  1  0  0  0
 17 21  1  0  0  0
 18 21  1  0  0  0
 28 12  1  0  0  0
 28 20  1  0  0  0
  1  2  2  0  0  0
  3  4  2  0  0  0
  5  9  2  0  0  0
  6 12  2  0  0  0
  7  8  2  0  0  0
 10 11  2  0  0  0
 13 23  2  0  0  0
 28 24  2  0  0  0
 28 25  2  0  0  0
M  CHG  2  21   1  22  -1
M  END
> <rmsd>
0.706501484

$$$$
ZINC64580554


 28 30  0  0  0  0  0  0  0  0999 V2000
    0.8685    2.5239   -2.5709 C   0  0  0  0  0
   -0.1073    2.5006   -1.5746 C   0  0  0  0  0
   -2.9083   -2.3079   -1.7770 C   0  0  0  0  0
   -2.7425   -0.9372   -1.5787 C   0  0  0  0  0
    0.8585    0.4766   -0.6760 C   0  0  0  0  0
   -3.3771   -1.1955    0.7381 C   0  0  0  0  0
    1.8343    0.4998   -1.6725 C   0  0  0  0  0
    1.8393    1.5235   -2.6199 C   0  0  0  0  0
   -0.1124    1.4770   -0.6270 C   0  0  0  0  0
   -3.3087   -3.1224   -0.7177 C   0  0  0  0  0
   -3.5430   -2.5662    0.5399 C   0  0  0  0  0
   -2.9768   -0.3810   -0.3212 C   0  0  0  0  0
    2.8492   -0.5701   -1.7016 C   0  0  0  0  0
    4.0523    2.2953   -3.3466 C   0  0  0  0  0
    2.3956    1.5186   -5.0339 C   0  0  0  0  0
    5.1854    1.7863   -4.2273 C   0  0  0  0  0
    3.5331    1.0156   -5.9136 C   0  0  0  0  0
    5.8825    1.4890   -6.6035 C   0  0  0  0  0
    2.8095    1.5649   -3.6279 N   0  0  0  0  0
   -1.1114    1.4535    0.3926 N   0  0  0  0  0
    4.7612    1.8552   -5.6724 N   0  0  0  0  0
    2.6048   -1.6335   -2.3828 O   0  0  0  0  0
    3.9423   -0.4011   -1.0446 O   0  0  0  0  0
   -3.5972    1.7223    1.0635 O   0  0  0  0  0
   -2.9654    2.0168   -1.3477 O   0  0  0  0  0
   -3.4679   -4.4388   -0.9073 F   0  0  0  0  0
   -3.9261   -3.3484    1.5573 F   0  0  0  0  0
   -2.7681    1.3586   -0.0705 S   0  0  0  0  0
  1  8  1  0  0  0
  2  9  1  0  0  0
  3 10  1  0  0  0
  4 12  1  0  0  0
  5  7  1  0  0  0
  6 11  1  0  0  0
  7 13  1  0  0  0
  8 19  1  0  0  0
  9 20  1  0  0  0
 10 26  1  0  0  0
 11 27  1  0  0  0
 13 22  1  0  0  0
 14 16  1  0  0  0
 14 19  1  0  0  0
 15 17  1  0  0  0
 15 19  1  0  0  0
 16 21  1  0  0  0
 17 21  1  0  0  0
 18 21  1  0  0  0
 28 12  1  0  0  0
 28 20  1  0  0  0
  1  2  2  0  0  0
  3  4  2  0  0  0
  5  9  2  0  0  0
  6 12  2  0  0  0
  7  8  2  0  0  0
 10 11  2  0  0  0
 13 23  2  0  0  0
 28 24  2  0  0  0
 28 25  2  0  0  0
M  CHG  2  21   1  22  -1
M  END
> <rmsd>
0.525618792

$$$$
ZINC64491167


 28 30  0  0  0  0  0  0  0  0999 V2000
    0.8709    2.5264   -2.5682 C   0  0  0  0  0
   -0.1054    2.5023   -1.5723 C   0  0  0  0  0
   -3.3053   -3.1220   -0.7143 C   0  0  0  0  0
   -2.9055   -2.3095   -1.7753 C   0  0  0  0  0
    0.8589    0.4767   -0.6759 C   0  0  0  0  0
   -3.3769   -1.1918    0.7369 C   0  0  0  0  0
    1.8352    0.5006   -1.6719 C   0  0  0  0  0
    1.8412    1.5255   -2.6180 C   0  0  0  0  0
   -0.1114    1.4775   -0.6261 C   0  0  0  0  0
   -3.5410   -2.5631    0.5417 C   0  0  0  0  0
   -2.7413   -0.9382   -1.5802 C   0  0  0  0  0
   -2.9771   -0.3793   -0.3240 C   0  0  0  0  0
    2.8496   -0.5698   -1.7019 C   0  0  0  0  0
    4.0550    2.2971   -3.3427 C   0  0  0  0  0
    2.3987    1.5234   -5.0318 C   0  0  0  0  0
    5.1883    1.7885   -4.2234 C   0  0  0  0  0
    3.5363    1.0209   -5.9115 C   0  0  0  0  0
    5.8863    1.4939   -6.5997 C   0  0  0  0  0
    2.8120    1.5677   -3.6255 N   0  0  0  0  0
   -1.1110    1.4533    0.3930 N   0  0  0  0  0
    4.7648    1.8595   -5.6686 N   0  0  0  0  0
    2.6049   -1.6322   -2.3846 O   0  0  0  0  0
    3.9424   -0.4023   -1.0442 O   0  0  0  0  0
   -3.5969    1.7226    1.0630 O   0  0  0  0  0
   -2.9638    2.0198   -1.3475 O   0  0  0  0  0
   -3.9237   -3.3434    1.5612 F   0  0  0  0  0
   -2.3567   -0.1674   -2.6071 F   0  0  0  0  0
   -2.7675    1.3599   -0.0711 S   0  0  0  0  0
  1  8  1  0  0  0
  2  9  1  0  0  0
  3 10  1  0  0  0
  4 11  1  0  0  0
  5  7  1  0  0  0
  6 12  1  0  0  0
  7 13  1  0  0  0
  8 19  1  0  0  0
  9 20  1  0  0  0
 10 26  1  0  0  0
 11 27  1  0  0  0
 13 22  1  0  0  0
 14 16  1  0  0  0
 14 19  1  0  0  0
 15 17  1  0  0  0
 15 19  1  0  0  0
 16 21  1  0  0  0
 17 21  1  0  0  0
 18 21  1  0  0  0
 28 12  1  0  0  0
 28 20  1  0  0  0
  1  2  2  0  0  0
  3  4  2  0  0  0
  5  9  2  0  0  0
  6 10  2  0  0  0
  7  8  2  0  0  0
 11 12  2  0  0  0
 13 23  2  0  0  0
 28 24  2  0  0  0
 28 25  2  0  0  0
M  CHG  2  21   1  22  -1
M  END
> <rmsd>
0.525912762

$$$$
ZINC64491167


 28 30  0  0  0  0  0  0  0  0999 V2000
    1.0233    2.8852   -2.1870 C   0  0  0  0  0
   -0.0366    2.7676   -1.2879 C   0  0  0  0  0
   -2.8519   -3.1013   -0.7985 C   0  0  0  0  0
   -2.4199   -2.2409   -1.8079 C   0  0  0  0  0
    0.9958    0.8059   -0.3274 C   0  0  0  0  0
   -3.2093   -1.2095    0.6611 C   0  0  0  0  0
    2.0557    0.9234   -1.2266 C   0  0  0  0  0
    2.0694    1.9630   -2.1564 C   0  0  0  0  0
   -0.0504    1.7280   -0.3581 C   0  0  0  0  0
   -3.2465   -2.5856    0.4359 C   0  0  0  0  0
   -2.3826   -0.8649   -1.5828 C   0  0  0  0  0
   -2.7773   -0.3491   -0.3483 C   0  0  0  0  0
    3.1492   -0.0651   -1.1729 C   0  0  0  0  0
    4.2738    2.9160   -2.6604 C   0  0  0  0  0
    2.8476    2.0485   -4.5067 C   0  0  0  0  0
    5.5204    2.5126   -3.4361 C   0  0  0  0  0
    4.0981    1.6515   -5.2809 C   0  0  0  0  0
    6.4576    2.3166   -5.7391 C   0  0  0  0  0
    3.1235    2.0984   -3.0673 N   0  0  0  0  0
   -1.1355    1.6080    0.5620 N   0  0  0  0  0
    5.2291    2.5775   -4.9139 N   0  0  0  0  0
    3.0531   -1.1304   -1.8874 O   0  0  0  0  0
    4.1595    0.1738   -0.4132 O   0  0  0  0  0
   -3.6864    1.6727    0.9977 O   0  0  0  0  0
   -2.8569    2.0624   -1.3389 O   0  0  0  0  0
   -3.6601   -3.4117    1.4059 F   0  0  0  0  0
   -1.9657   -0.0479   -2.5602 F   0  0  0  0  0
   -2.7291    1.3960   -0.0572 S   0  0  0  0  0
  1  8  1  0  0  0
  2  9  1  0  0  0
  3 10  1  0  0  0
  4 11  1  0  0  0
  5  7  1  0  0  0
  6 12  1  0  0  0
  7 13  1  0  0  0
  8 19  1  0  0  0
  9 20  1  0  0  0
 10 26  1  0  0  0
 11 27  1  0  0  0
 13 22  1  0  0  0
 14 16  1  0  0  0
 14 19  1  0  0  0
 15 17  1  0  0  0
 15 19  1  0  0  0
 16 21  1  0  0  0
 17 21  1  0  0  0
 18 21  1  0  0  0
 28 12  1  0  0  0
 28 20  1  0  0  0
  1  2  2  0  0  0
  3  4  2  0  0  0
  5  9  2  0  0  0
  6 10  2  0  0  0
  7  8  2  0  0  0
 11 12  2  0  0  0
 13 23  2  0  0  0
 28 24  2  0  0  0
 28 25  2  0  0  0
M  CHG  2  21   1  22  -1
M  END
> <rmsd>
0.70667243

$$$$
ZINC52940736


 24 25  0  0  0  0  0  0  0  0999 V2000
    2.3392    2.5810   -2.9664 C   0  0  0  0  0
    1.4956    2.7974   -1.8769 C   0  0  0  0  0
    3.1274    1.4313   -3.0206 C   0  0  0  0  0
   -4.8346   -0.7093    0.6873 C   0  0  0  0  0
   -4.4732   -2.0009    0.3044 C   0  0  0  0  0
   -2.3232   -1.1809   -0.4321 C   0  0  0  0  0
    2.2284    0.7148   -0.8956 C   0  0  0  0  0
   -2.6847    0.1107   -0.0492 C   0  0  0  0  0
    1.4402    1.8643   -0.8415 C   0  0  0  0  0
    3.0720    0.4983   -1.9852 C   0  0  0  0  0
   -3.9404    0.3466    0.5104 C   0  0  0  0  0
   -3.2175   -2.2367   -0.2553 C   0  0  0  0  0
   -1.7370    1.1994   -0.2429 C   0  0  0  0  0
    1.2894    2.1860    1.6617 C   0  0  0  0  0
    3.0226   -2.3280   -3.7861 C   0  0  0  0  0
    0.5262    2.1009    0.3414 C   0  0  0  0  0
    3.8321   -0.6127   -2.0387 N   0  0  0  0  0
   -0.5073    1.0934    0.4155 N   0  0  0  0  0
   -2.0376    2.1773   -0.9484 O   0  0  0  0  0
    1.8570   -2.2001   -1.5211 O   0  0  0  0  0
    4.1355   -3.1505   -1.6434 O   0  0  0  0  0
   -4.3124    1.6014    0.8907 O   0  0  0  0  0
    3.2193   -2.0825   -2.0331 S   0  0  0  0  0
   -2.7284   -3.9873   -0.7734 Br  0  0  0  0  0
  1  3  1  0  0  0
  2  9  1  0  0  0
  4 11  1  0  0  0
  5 12  1  0  0  0
  6  8  1  0  0  0
  7 10  1  0  0  0
  8 13  1  0  0  0
 10 17  1  0  0  0
 11 22  1  0  0  0
 12 24  1  0  0  0
 13 18  1  0  0  0
 14 16  1  0  0  0
 15 23  1  0  0  0
 16  9  1  0  0  0
 16 18  1  0  0  0
 23 17  1  0  0  0
  1  2  2  0  0  0
  3 10  2  0  0  0
  4  5  2  0  0  0
  6 12  2  0  0  0
  7  9  2  0  0  0
  8 11  2  0  0  0
 13 19  2  0  0  0
 23 20  2  0  0  0
 23 21  2  0  0  0
M  CHG  1  17  -1
M  END
> <rmsd>
0.561532497

$$$$
ZINC16922850


 29 31  0  0  0  0  0  0  0  0999 V2000
   -3.9996   -3.3362   -0.0799 C   0  0  0  0  0
   -3.5117   -2.4364    0.8677 C   0  0  0  0  0
   -4.3088   -2.8948   -1.3665 C   0  0  0  0  0
   -3.3331   -1.0952    0.5288 C   0  0  0  0  0
   -4.1301   -1.5537   -1.7054 C   0  0  0  0  0
    2.2271   -1.5076    0.6094 C   0  0  0  0  0
    0.3893   -0.3004    1.6103 C   0  0  0  0  0
    1.2838    0.4094   -0.5187 C   0  0  0  0  0
    1.3164   -1.3418    1.6527 C   0  0  0  0  0
    2.2109   -0.6319   -0.4764 C   0  0  0  0  0
   -3.6423   -0.6538   -0.7579 C   0  0  0  0  0
    0.3730    0.5752    0.5246 C   0  0  0  0  0
   -3.5805    1.7495   -0.1558 C   0  0  0  0  0
   -3.1642    1.1201   -2.4086 C   0  0  0  0  0
    1.3333   -2.2658    2.7983 C   0  0  0  0  0
    3.1719   -0.8072   -1.5776 C   0  0  0  0  0
   -0.7223    2.5897   -0.5165 C   0  0  0  0  0
   -3.1949    3.0960   -0.7223 C   0  0  0  0  0
   -1.8532    3.5457   -0.1676 C   0  0  0  0  0
   -3.4577    0.7301   -1.1074 N   0  0  0  0  0
   -0.5669    1.6323    0.4819 N   0  0  0  0  0
    0.4820   -2.0905    3.7485 O   0  0  0  0  0
    3.1356    0.0147   -2.5683 O   0  0  0  0  0
   -3.9689    1.6508    1.0059 O   0  0  0  0  0
   -2.9187    0.4360   -3.3911 O   0  0  0  0  0
    2.1992   -3.2191    2.8128 O   0  0  0  0  0
    4.0170   -1.7769   -1.5140 O   0  0  0  0  0
   -0.0734    2.6997   -1.5515 O   0  0  0  0  0
   -3.1068    2.8712   -2.5081 S   0  0  0  0  0
  1  2  1  0  0  0
  3  5  1  0  0  0
  4 11  1  0  0  0
  6  9  1  0  0  0
  7 12  1  0  0  0
  8 10  1  0  0  0
  9 15  1  0  0  0
 10 16  1  0  0  0
 11 20  1  0  0  0
 12 21  1  0  0  0
 13 20  1  0  0  0
 14 20  1  0  0  0
 14 29  1  0  0  0
 15 22  1  0  0  0
 16 23  1  0  0  0
 17 21  1  0  0  0
 18 13  1  0  0  0
 18 19  1  0  0  0
 18 29  1  0  0  0
 19 17  1  0  0  0
  1  3  2  0  0  0
  2  4  2  0  0  0
  5 11  2  0  0  0
  6 10  2  0  0  0
  7  9  2  0  0  0
  8 12  2  0  0  0
 13 24  2  0  0  0
 14 25  2  0  0  0
 15 26  2  0  0  0
 16 27  2  0  0  0
 17 28  2  0  0  0
M  CHG  2  22  -1  23  -1
M  END
> <rmsd>
0.329814374

$$$$
ZINC16922865


 29 31  0  0  0  0  0  0  0  0999 V2000
   -3.5680   -3.4202   -0.3890 C   0  0  0  0  0
   -2.9464   -2.5269    0.4834 C   0  0  0  0  0
   -4.2157   -2.9449   -1.5293 C   0  0  0  0  0
    2.1302   -1.1135    0.9958 C   0  0  0  0  0
    1.3628   -0.6975    2.0838 C   0  0  0  0  0
   -2.9726   -1.1583    0.2157 C   0  0  0  0  0
   -4.2418   -1.5763   -1.7971 C   0  0  0  0  0
    0.9991    0.4890   -0.4148 C   0  0  0  0  0
    1.9485   -0.5202   -0.2535 C   0  0  0  0  0
    0.4135    0.3117    1.9223 C   0  0  0  0  0
   -3.6203   -0.6829   -0.9246 C   0  0  0  0  0
    0.2316    0.9049    0.6730 C   0  0  0  0  0
   -3.6253    1.6783   -0.1719 C   0  0  0  0  0
   -3.7113    1.2165   -2.5008 C   0  0  0  0  0
    2.7594   -0.9588   -1.4006 C   0  0  0  0  0
   -0.3843    0.7320    3.0901 C   0  0  0  0  0
   -1.0189    2.6137   -0.6902 C   0  0  0  0  0
   -3.5067    3.0857   -0.7084 C   0  0  0  0  0
   -2.1154    3.6410   -0.4516 C   0  0  0  0  0
   -3.6470    0.7293   -1.2008 N   0  0  0  0  0
   -0.7252    1.9309    0.4868 N   0  0  0  0  0
    2.5722   -0.3954   -2.5437 O   0  0  0  0  0
    0.0634    1.6822    3.8324 O   0  0  0  0  0
   -3.7117    1.4782    1.0375 O   0  0  0  0  0
   -3.6513    0.6148   -3.5628 O   0  0  0  0  0
    3.6296   -1.8917   -1.2242 O   0  0  0  0  0
   -1.4981    0.1326    3.3235 O   0  0  0  0  0
   -0.5039    2.4559   -1.7921 O   0  0  0  0  0
   -3.8326    2.9670   -2.4767 S   0  0  0  0  0
  1  2  1  0  0  0
  3  7  1  0  0  0
  4  9  1  0  0  0
  5 10  1  0  0  0
  6 11  1  0  0  0
  8 12  1  0  0  0
  9 15  1  0  0  0
 10 16  1  0  0  0
 11 20  1  0  0  0
 12 21  1  0  0  0
 13 20  1  0  0  0
 14 20  1  0  0  0
 14 29  1  0  0  0
 15 22  1  0  0  0
 16 23  1  0  0  0
 17 21  1  0  0  0
 18 13  1  0  0  0
 18 19  1  0  0  0
 18 29  1  0  0  0
 19 17  1  0  0  0
  1  3  2  0  0  0
  2  6  2  0  0  0
  4  5  2  0  0  0
  7 11  2  0  0  0
  8  9  2  0  0  0
 10 12  2  0  0  0
 13 24  2  0  0  0
 14 25  2  0  0  0
 15 26  2  0  0  0
 16 27  2  0  0  0
 17 28  2  0  0  0
M  CHG  2  22  -1  23  -1
M  END
> <rmsd>
0.568020642

$$$$
ZINC13340251


 27 28  0  0  0  0  0  0  0  0999 V2000
    0.9341    2.5763   -2.4911 C   0  0  0  0  0
    1.9003    1.5723   -2.5544 C   0  0  0  0  0
   -0.0613    2.5258   -1.5151 C   0  0  0  0  0
    0.8759    0.4673   -0.6659 C   0  0  0  0  0
    1.8713    0.5178   -1.6418 C   0  0  0  0  0
   -2.8067   -1.1692   -1.5267 C   0  0  0  0  0
   -3.1145   -2.5350   -1.2627 C   0  0  0  0  0
   -0.0903    1.4713   -0.6025 C   0  0  0  0  0
   -3.5020   -2.7350    0.0439 C   0  0  0  0  0
   -2.9710   -0.3770   -0.4116 C   0  0  0  0  0
    2.8908   -0.5417   -1.7100 C   0  0  0  0  0
   -2.3722   -0.6345   -2.7922 C   0  0  0  0  0
   -3.8878   -3.9447    0.6976 C   0  0  0  0  0
   -3.0279   -3.6157   -2.2774 C   0  0  0  0  0
   -0.6616   -0.7539   -4.4666 C   0  0  0  0  0
   -3.5760   -6.3312    0.7360 C   0  0  0  0  0
   -1.1082    1.4203    0.3972 N   0  0  0  0  0
    2.8423   -1.5043   -0.8559 O   0  0  0  0  0
    3.7979   -0.4712   -2.6214 O   0  0  0  0  0
   -2.9737    0.2427   -3.4408 O   0  0  0  0  0
   -4.6963   -4.0292    1.6513 O   0  0  0  0  0
   -3.6043    1.6830    1.0311 O   0  0  0  0  0
   -2.9263    2.0536   -1.3568 O   0  0  0  0  0
   -1.1979   -1.2048   -3.2181 O   0  0  0  0  0
   -3.2691   -5.0549    0.1648 O   0  0  0  0  0
   -3.4939   -1.2797    0.9463 S   0  0  0  0  0
   -2.7566    1.3519   -0.0990 S   0  0  0  0  0
  1  2  1  0  0  0
  3  8  1  0  0  0
  4  5  1  0  0  0
  5 11  1  0  0  0
  6  7  1  0  0  0
  6 12  1  0  0  0
  8 17  1  0  0  0
  9 13  1  0  0  0
  9 26  1  0  0  0
 10 26  1  0  0  0
 11 18  1  0  0  0
 12 24  1  0  0  0
 13 25  1  0  0  0
 14  7  1  0  0  0
 15 24  1  0  0  0
 16 25  1  0  0  0
 27 10  1  0  0  0
 27 17  1  0  0  0
  1  3  2  0  0  0
  2  5  2  0  0  0
  4  8  2  0  0  0
  6 10  2  0  0  0
  7  9  2  0  0  0
 11 19  2  0  0  0
 12 20  2  0  0  0
 13 21  2  0  0  0
 27 22  2  0  0  0
 27 23  2  0  0  0
M  CHG  1  18  -1
M  END
> <rmsd>
0.469945163

$$$$
ZINC13340251


 27 28  0  0  0  0  0  0  0  0999 V2000
    0.9341    2.5765   -2.4912 C   0  0  0  0  0
    1.9003    1.5725   -2.5546 C   0  0  0  0  0
   -0.0614    2.5260   -1.5152 C   0  0  0  0  0
    0.8758    0.4675   -0.6660 C   0  0  0  0  0
    1.8711    0.5180   -1.6419 C   0  0  0  0  0
   -2.8069   -1.1689   -1.5271 C   0  0  0  0  0
   -3.1147   -2.5348   -1.2631 C   0  0  0  0  0
   -0.0904    1.4715   -0.6027 C   0  0  0  0  0
   -3.5022   -2.7349    0.0435 C   0  0  0  0  0
   -2.9712   -0.3768   -0.4119 C   0  0  0  0  0
    2.8907   -0.5415   -1.7102 C   0  0  0  0  0
   -2.3723   -0.6342   -2.7925 C   0  0  0  0  0
   -3.8880   -3.9446    0.6971 C   0  0  0  0  0
   -3.0280   -3.6155   -2.2779 C   0  0  0  0  0
   -0.6616   -0.7536   -4.4669 C   0  0  0  0  0
   -5.2561   -4.8702    2.4480 C   0  0  0  0  0
   -1.1083    1.4204    0.3970 N   0  0  0  0  0
    2.8421   -1.5042   -0.8561 O   0  0  0  0  0
    3.7978   -0.4710   -2.6216 O   0  0  0  0  0
   -2.9738    0.2430   -3.4411 O   0  0  0  0  0
   -3.4721   -5.0909    0.4082 O   0  0  0  0  0
   -3.6045    1.6831    1.0309 O   0  0  0  0  0
   -2.9264    2.0538   -1.3570 O   0  0  0  0  0
   -1.1980   -1.2046   -3.2184 O   0  0  0  0  0
   -4.7928   -3.7314    1.7144 O   0  0  0  0  0
   -3.4941   -1.2795    0.9459 S   0  0  0  0  0
   -2.7567    1.3520   -0.0993 S   0  0  0  0  0
  1  2  1  0  0  0
  3  8  1  0  0  0
  4  5  1  0  0  0
  5 11  1  0  0  0
  6  7  1  0  0  0
  6 12  1  0  0  0
  8 17  1  0  0  0
  9 13  1  0  0  0
  9 26  1  0  0  0
 10 26  1  0  0  0
 11 18  1  0  0  0
 12 24  1  0  0  0
 13 25  1  0  0  0
 14  7  1  0  0  0
 15 24  1  0  0  0
 16 25  1  0  0  0
 27 10  1  0  0  0
 27 17  1  0  0  0
  1  3  2  0  0  0
  2  5  2  0  0  0
  4  8  2  0  0  0
  6 10  2  0  0  0
  7  9  2  0  0  0
 11 19  2  0  0  0
 12 20  2  0  0  0
 13 21  2  0  0  0
 27 22  2  0  0  0
 27 23  2  0  0  0
M  CHG  1  18  -1
M  END
> <rmsd>
0.469947636

$$$$
ZINC08909273


 29 31  0  0  0  0  0  0  0  0999 V2000
   -2.2785    4.9153   -1.1458 C   0  0  0  0  0
   -0.8879    4.8517   -1.0574 C   0  0  0  0  0
   -3.0539    3.8329   -0.7301 C   0  0  0  0  0
    3.2379   -3.8121    1.8756 C   0  0  0  0  0
   -0.2728    3.7057   -0.5535 C   0  0  0  0  0
    2.7416   -2.5129    1.9820 C   0  0  0  0  0
    4.5753   -3.1459   -0.0229 C   0  0  0  0  0
   -5.0744   -2.4705    0.3301 C   0  0  0  0  0
   -4.3633   -3.1728   -0.6203 C   0  0  0  0  0
   -2.4388    2.6868   -0.2262 C   0  0  0  0  0
    4.1548   -4.1286    0.8732 C   0  0  0  0  0
   -1.0482    2.6233   -0.1379 C   0  0  0  0  0
    4.0791   -1.8466    0.0834 C   0  0  0  0  0
    3.1622   -1.5302    1.0859 C   0  0  0  0  0
   -3.7281   -0.8681   -0.3253 C   0  0  0  0  0
   -3.2782    1.5739    0.1995 C   0  0  0  0  0
    0.9634    1.2617    0.5138 C   0  0  0  0  0
    4.6847   -5.5181    0.7600 C   0  0  0  0  0
    1.2586   -0.1047    1.0934 C   0  0  0  0  0
   -4.7112   -1.1489    0.5010 N   0  0  0  0  0
   -0.4101    1.4847    0.3620 N   0  0  0  0  0
   -3.0549    0.3695   -0.4831 N   0  0  0  0  0
    4.5185   -0.8576   -0.8390 N   0  0  0  0  0
    3.8790   -0.6968   -1.9053 O   0  0  0  0  0
   -4.1415    1.7111    1.0749 O   0  0  0  0  0
    1.8785    2.0282    0.2289 O   0  0  0  0  0
    5.5322   -0.1751   -0.5586 O   0  0  0  0  0
    2.6580   -0.2576    1.2107 O   0  0  0  0  0
   -3.1912   -2.1462   -1.3368 S   0  0  0  0  0
  1  2  1  0  0  0
  3 10  1  0  0  0
  4 11  1  0  0  0
  5 12  1  0  0  0
  6 14  1  0  0  0
  7 13  1  0  0  0
  8 20  1  0  0  0
  9 29  1  0  0  0
 10 16  1  0  0  0
 12 21  1  0  0  0
 13 23  1  0  0  0
 14 28  1  0  0  0
 15 22  1  0  0  0
 15 29  1  0  0  0
 16 22  1  0  0  0
 17 21  1  0  0  0
 18 11  1  0  0  0
 19 17  1  0  0  0
 19 28  1  0  0  0
 23 24  1  0  0  0
  1  3  2  0  0  0
  2  5  2  0  0  0
  4  6  2  0  0  0
  7 11  2  0  0  0
  8  9  2  0  0  0
 10 12  2  0  0  0
 13 14  2  0  0  0
 15 20  2  0  0  0
 16 25  2  0  0  0
 17 26  2  0  0  0
 23 27  2  0  0  0
M  CHG  2  23   1  24  -1
M  END
> <rmsd>
0.469973654

$$$$
ZINC03926191


 27 29  0  0  0  0  0  0  0  0999 V2000
   -4.2109   -1.2852    0.2968 C   0  0  0  0  0
   -3.1747   -0.4832   -0.1337 C   0  0  0  0  0
   -2.5677   -2.3547   -1.1026 C   0  0  0  0  0
    3.2567    0.4265   -0.1202 C   0  0  0  0  0
    3.8066   -0.0349    1.0282 C   0  0  0  0  0
    1.2435    1.7242   -0.9590 C   0  0  0  0  0
   -3.0384    0.9550    0.2227 C   0  0  0  0  0
    3.7935   -0.0480   -1.4656 C   0  0  0  0  0
   -1.8599    1.7273   -0.3103 C   0  0  0  0  0
    3.2232    0.2468    2.4110 C   0  0  0  0  0
    0.4758    2.3418    0.2446 C   0  0  0  0  0
    1.7234    1.9656    1.0732 C   0  0  0  0  0
    7.2304   -1.0085    1.9445 C   0  0  0  0  0
    5.0428   -0.8979    1.0929 C   0  0  0  0  0
   -2.2313   -1.0950   -0.9359 N   0  0  0  0  0
   -3.9202    1.5412    0.9749 N   0  0  0  0  0
    2.1835    1.2584   -0.1082 N   0  0  0  0  0
   -1.8547   -3.2468   -1.8400 N   0  0  0  0  0
   -0.7890    1.6691    0.5376 N   0  0  0  0  0
    3.2330   -1.0789   -1.9209 O   0  0  0  0  0
    1.0628    1.6126   -2.1489 O   0  0  0  0  0
    4.7241    0.6559   -1.9378 O   0  0  0  0  0
   -1.9804    2.2943   -1.3843 O   0  0  0  0  0
   -3.6121    2.8883    1.1826 O   0  0  0  0  0
    6.0361   -0.2378    1.8492 O   0  0  0  0  0
   -4.0069   -2.8710   -0.3235 S   0  0  0  0  0
    1.4738    0.7670    2.4026 S   0  0  0  0  0
  1 26  1  0  0  0
  2  7  1  0  0  0
  2 15  1  0  0  0
  3 18  1  0  0  0
  3 26  1  0  0  0
  4  8  1  0  0  0
  4 17  1  0  0  0
  6 17  1  0  0  0
  7  9  1  0  0  0
  8 20  1  0  0  0
  9 19  1  0  0  0
 10  5  1  0  0  0
 10 27  1  0  0  0
 11  6  1  0  0  0
 11 12  1  0  0  0
 11 19  1  0  0  0
 12 17  1  0  0  0
 12 27  1  0  0  0
 13 25  1  0  0  0
 14  5  1  0  0  0
 14 25  1  0  0  0
 16 24  1  0  0  0
  1  2  2  0  0  0
  3 15  2  0  0  0
  4  5  2  0  0  0
  6 21  2  0  0  0
  7 16  2  0  0  0
  8 22  2  0  0  0
  9 23  2  0  0  0
M  CHG  1  20  -1
M  END
> <rmsd>
0.39789027

$$$$
ZINC03926191


 27 29  0  0  0  0  0  0  0  0999 V2000
   -4.4887   -1.1664    0.4537 C   0  0  0  0  0
   -3.4014   -0.4799   -0.0450 C   0  0  0  0  0
   -3.0023   -2.4353   -0.9545 C   0  0  0  0  0
    3.0818   -0.1628   -0.2879 C   0  0  0  0  0
    3.6307   -0.6277    0.8596 C   0  0  0  0  0
    1.1635    1.2803   -1.1116 C   0  0  0  0  0
   -3.1228    0.9525    0.2459 C   0  0  0  0  0
    3.5227   -0.7361   -1.6296 C   0  0  0  0  0
   -1.9004    1.5925   -0.3587 C   0  0  0  0  0
    3.1274   -0.2404    2.2484 C   0  0  0  0  0
    0.5003    2.0117    0.0903 C   0  0  0  0  0
    1.7392    1.5553    0.8912 C   0  0  0  0  0
    6.9849   -1.8742    1.6993 C   0  0  0  0  0
    4.7857   -1.5971    0.9185 C   0  0  0  0  0
   -2.5477   -1.2060   -0.8524 N   0  0  0  0  0
   -3.9194    1.6456    1.0022 N   0  0  0  0  0
    2.0890    0.7638   -0.2744 N   0  0  0  0  0
   -2.4008   -3.4168   -1.6776 N   0  0  0  0  0
   -0.8080    1.4695    0.4541 N   0  0  0  0  0
    2.8549   -1.7283   -2.0219 O   0  0  0  0  0
    0.9289    1.1397   -2.2890 O   0  0  0  0  0
    4.4945   -0.1392   -2.1622 O   0  0  0  0  0
   -2.0096    2.1261   -1.4510 O   0  0  0  0  0
   -3.4835    2.9659    1.1426 O   0  0  0  0  0
    5.8621   -1.0018    1.6123 O   0  0  0  0  0
   -4.4518   -2.7871   -0.1060 S   0  0  0  0  0
    1.4328    0.4369    2.2774 S   0  0  0  0  0
  1 26  1  0  0  0
  2  7  1  0  0  0
  2 15  1  0  0  0
  3 18  1  0  0  0
  3 26  1  0  0  0
  4  8  1  0  0  0
  4 17  1  0  0  0
  6 17  1  0  0  0
  7  9  1  0  0  0
  8 20  1  0  0  0
  9 19  1  0  0  0
 10  5  1  0  0  0
 10 27  1  0  0  0
 11  6  1  0  0  0
 11 12  1  0  0  0
 11 19  1  0  0  0
 12 17  1  0  0  0
 12 27  1  0  0  0
 13 25  1  0  0  0
 14  5  1  0  0  0
 14 25  1  0  0  0
 16 24  1  0  0  0
  1  2  2  0  0  0
  3 15  2  0  0  0
  4  5  2  0  0  0
  6 21  2  0  0  0
  7 16  2  0  0  0
  8 22  2  0  0  0
  9 23  2  0  0  0
M  CHG  1  20  -1
M  END
> <rmsd>
0.0993204191

$$$$
ZINC26249456


 27 29  0  0  0  0  0  0  0  0999 V2000
   -4.2081   -1.2865    0.2906 C   0  0  0  0  0
   -3.1731   -0.4829   -0.1394 C   0  0  0  0  0
   -2.5626   -2.3534   -1.1081 C   0  0  0  0  0
    3.2532    0.4284   -0.1202 C   0  0  0  0  0
    3.8031   -0.0290    1.0298 C   0  0  0  0  0
    1.2402    1.7237   -0.9634 C   0  0  0  0  0
   -3.0393    0.9552    0.2171 C   0  0  0  0  0
    3.7896   -0.0511   -1.4640 C   0  0  0  0  0
   -1.8626    1.7305   -0.3146 C   0  0  0  0  0
    3.2200    0.2579    2.4116 C   0  0  0  0  0
    0.4728    2.3459    0.2381 C   0  0  0  0  0
    1.7205    1.9723    1.0678 C   0  0  0  0  0
   -4.6045    3.4420    2.0332 C   0  0  0  0  0
    5.0391   -0.8921    1.0974 C   0  0  0  0  0
   -2.2284   -1.0930   -0.9412 N   0  0  0  0  0
   -3.9160    1.5368    0.9791 N   0  0  0  0  0
    2.1802    1.2607   -0.1111 N   0  0  0  0  0
   -1.8479   -3.2444   -1.8451 N   0  0  0  0  0
   -0.7921    1.6747    0.5338 N   0  0  0  0  0
    3.2287   -1.0835   -1.9154 O   0  0  0  0  0
    1.0593    1.6079   -2.1528 O   0  0  0  0  0
    4.7203    0.6508   -1.9389 O   0  0  0  0  0
   -1.9824    2.2939   -1.3906 O   0  0  0  0  0
    6.0327   -0.2296    1.8511 O   0  0  0  0  0
   -3.6023    2.8856    1.1963 O   0  0  0  0  0
   -4.0013   -2.8720   -0.3295 S   0  0  0  0  0
    1.4707    0.7785    2.4016 S   0  0  0  0  0
  1 26  1  0  0  0
  2  7  1  0  0  0
  2 15  1  0  0  0
  3 18  1  0  0  0
  3 26  1  0  0  0
  4  8  1  0  0  0
  4 17  1  0  0  0
  6 17  1  0  0  0
  7  9  1  0  0  0
  8 20  1  0  0  0
  9 19  1  0  0  0
 10  5  1  0  0  0
 10 27  1  0  0  0
 11  6  1  0  0  0
 11 12  1  0  0  0
 11 19  1  0  0  0
 12 17  1  0  0  0
 12 27  1  0  0  0
 13 25  1  0  0  0
 14  5  1  0  0  0
 14 24  1  0  0  0
 16 25  1  0  0  0
  1  2  2  0  0  0
  3 15  2  0  0  0
  4  5  2  0  0  0
  6 21  2  0  0  0
  7 16  2  0  0  0
  8 22  2  0  0  0
  9 23  2  0  0  0
M  CHG  1  20  -1
M  END
> <rmsd>
0.402812332

$$$$
ZINC26249456


 27 29  0  0  0  0  0  0  0  0999 V2000
   -4.4868   -1.1678    0.4476 C   0  0  0  0  0
   -3.4002   -0.4799   -0.0504 C   0  0  0  0  0
   -2.9975   -2.4348   -0.9591 C   0  0  0  0  0
    3.0784   -0.1617   -0.2851 C   0  0  0  0  0
    3.6272   -0.6223    0.8641 C   0  0  0  0  0
    1.1605    1.2789   -1.1143 C   0  0  0  0  0
   -3.1240    0.9528    0.2404 C   0  0  0  0  0
    3.5189   -0.7404   -1.6246 C   0  0  0  0  0
   -1.9027    1.5955   -0.3628 C   0  0  0  0  0
    3.1241   -0.2295    2.2514 C   0  0  0  0  0
    0.4977    2.0152    0.0849 C   0  0  0  0  0
    1.7365    1.5615    0.8874 C   0  0  0  0  0
   -4.3896    3.6415    2.0012 C   0  0  0  0  0
    4.7818   -1.5919    0.9267 C   0  0  0  0  0
   -2.5449   -1.2049   -0.8569 N   0  0  0  0  0
   -3.9157    1.6415    1.0060 N   0  0  0  0  0
    2.0859    0.7653   -0.2752 N   0  0  0  0  0
   -2.3941   -3.4157   -1.6814 N   0  0  0  0  0
   -0.8108    1.4749    0.4508 N   0  0  0  0  0
    2.8507   -1.7338   -2.0130 O   0  0  0  0  0
    0.9258    1.1338   -2.2911 O   0  0  0  0  0
    4.4909   -0.1459   -2.1596 O   0  0  0  0  0
   -2.0111    2.1251   -1.4569 O   0  0  0  0  0
    5.8586   -0.9944    1.6181 O   0  0  0  0  0
   -3.4736    2.9633    1.1555 O   0  0  0  0  0
   -4.4472   -2.7886   -0.1116 S   0  0  0  0  0
    1.4298    0.4486    2.2780 S   0  0  0  0  0
  1 26  1  0  0  0
  2  7  1  0  0  0
  2 15  1  0  0  0
  3 18  1  0  0  0
  3 26  1  0  0  0
  4  8  1  0  0  0
  4 17  1  0  0  0
  6 17  1  0  0  0
  7  9  1  0  0  0
  8 20  1  0  0  0
  9 19  1  0  0  0
 10  5  1  0  0  0
 10 27  1  0  0  0
 11  6  1  0  0  0
 11 12  1  0  0  0
 11 19  1  0  0  0
 12 17  1  0  0  0
 12 27  1  0  0  0
 13 25  1  0  0  0
 14  5  1  0  0  0
 14 24  1  0  0  0
 16 25  1  0  0  0
  1  2  2  0  0  0
  3 15  2  0  0  0
  4  5  2  0  0  0
  6 21  2  0  0  0
  7 16  2  0  0  0
  8 22  2  0  0  0
  9 23  2  0  0  0
M  CHG  1  20  -1
M  END
> <rmsd>
0.10281653

$$$$
ZINC03926191


 27 29  0  0  0  0  0  0  0  0999 V2000
   -2.2583   -1.1575   -0.9537 C   0  0  0  0  0
   -3.1578   -0.4835   -0.1544 C   0  0  0  0  0
   -4.1254   -2.4518   -0.1530 C   0  0  0  0  0
    3.2720    0.4366   -0.1124 C   0  0  0  0  0
    3.8186   -0.0313    1.0350 C   0  0  0  0  0
    1.2595    1.7365   -0.9498 C   0  0  0  0  0
   -3.0252    0.9525    0.2118 C   0  0  0  0  0
    3.8143   -0.0282   -1.4589 C   0  0  0  0  0
   -1.8462    1.7302   -0.3120 C   0  0  0  0  0
    3.2298    0.2404    2.4175 C   0  0  0  0  0
    0.4865    2.3450    0.2551 C   0  0  0  0  0
    1.7318    1.9654    1.0856 C   0  0  0  0  0
    7.2407   -1.0052    1.9570 C   0  0  0  0  0
    5.0560   -0.8927    1.0984 C   0  0  0  0  0
   -4.2294   -1.2241    0.3052 N   0  0  0  0  0
   -3.9107    1.5323    0.9646 N   0  0  0  0  0
    2.1973    1.2667   -0.0988 N   0  0  0  0  0
   -5.0161   -3.4449    0.1082 N   0  0  0  0  0
   -0.7782    1.6683    0.5393 N   0  0  0  0  0
    3.2571   -1.0571   -1.9228 O   0  0  0  0  0
    1.0832    1.6323   -2.1410 O   0  0  0  0  0
    4.7453    0.6803   -1.9232 O   0  0  0  0  0
   -1.9638    2.3040   -1.3828 O   0  0  0  0  0
   -3.6055    2.8785    1.1821 O   0  0  0  0  0
    6.0455   -0.2359    1.8625 O   0  0  0  0  0
   -2.7635   -2.7854   -1.1424 S   0  0  0  0  0
    1.4796    0.7577    2.4063 S   0  0  0  0  0
  1 26  1  0  0  0
  2  7  1  0  0  0
  2 15  1  0  0  0
  3 18  1  0  0  0
  3 26  1  0  0  0
  4  8  1  0  0  0
  4 17  1  0  0  0
  6 17  1  0  0  0
  7  9  1  0  0  0
  8 20  1  0  0  0
  9 19  1  0  0  0
 10  5  1  0  0  0
 10 27  1  0  0  0
 11  6  1  0  0  0
 11 12  1  0  0  0
 11 19  1  0  0  0
 12 17  1  0  0  0
 12 27  1  0  0  0
 13 25  1  0  0  0
 14  5  1  0  0  0
 14 25  1  0  0  0
 16 24  1  0  0  0
  1  2  2  0  0  0
  3 15  2  0  0  0
  4  5  2  0  0  0
  6 21  2  0  0  0
  7 16  2  0  0  0
  8 22  2  0  0  0
  9 23  2  0  0  0
M  CHG  1  20  -1
M  END
> <rmsd>
0.35464713

$$$$
ZINC03926191


 27 29  0  0  0  0  0  0  0  0999 V2000
   -2.5808   -1.2664   -0.8680 C   0  0  0  0  0
   -3.3850   -0.4830   -0.0670 C   0  0  0  0  0
   -4.5247   -2.3532    0.0499 C   0  0  0  0  0
    3.0983   -0.1526   -0.2854 C   0  0  0  0  0
    3.6441   -0.6241    0.8608 C   0  0  0  0  0
    1.1802    1.2925   -1.1062 C   0  0  0  0  0
   -3.1100    0.9480    0.2343 C   0  0  0  0  0
    3.5449   -0.7163   -1.6294 C   0  0  0  0  0
   -1.8868    1.5941   -0.3618 C   0  0  0  0  0
    3.1354   -0.2469    2.2504 C   0  0  0  0  0
    0.5116    2.0147    0.0982 C   0  0  0  0  0
    1.7486    1.5552    0.9003 C   0  0  0  0  0
    6.9977   -1.8701    1.7038 C   0  0  0  0  0
    4.8007   -1.5917    0.9173 C   0  0  0  0  0
   -4.5004   -1.1045    0.4599 N   0  0  0  0  0
   -3.9105    1.6346    0.9925 N   0  0  0  0  0
    2.1038    0.7720   -0.2693 N   0  0  0  0  0
   -5.4903   -3.2502    0.3829 N   0  0  0  0  0
   -0.7970    1.4677    0.4539 N   0  0  0  0  0
    2.8802   -1.7070   -2.0305 O   0  0  0  0  0
    0.9499    1.1592   -2.2853 O   0  0  0  0  0
    4.5174   -0.1141   -2.1547 O   0  0  0  0  0
   -1.9932    2.1348   -1.4509 O   0  0  0  0  0
   -3.4776    2.9547    1.1431 O   0  0  0  0  0
    5.8737   -0.9992    1.6187 O   0  0  0  0  0
   -3.2370   -2.8475   -0.9712 S   0  0  0  0  0
    1.4395    0.4272    2.2780 S   0  0  0  0  0
  1 26  1  0  0  0
  2  7  1  0  0  0
  2 15  1  0  0  0
  3 18  1  0  0  0
  3 26  1  0  0  0
  4  8  1  0  0  0
  4 17  1  0  0  0
  6 17  1  0  0  0
  7  9  1  0  0  0
  8 20  1  0  0  0
  9 19  1  0  0  0
 10  5  1  0  0  0
 10 27  1  0  0  0
 11  6  1  0  0  0
 11 12  1  0  0  0
 11 19  1  0  0  0
 12 17  1  0  0  0
 12 27  1  0  0  0
 13 25  1  0  0  0
 14  5  1  0  0  0
 14 25  1  0  0  0
 16 24  1  0  0  0
  1  2  2  0  0  0
  3 15  2  0  0  0
  4  5  2  0  0  0
  6 21  2  0  0  0
  7 16  2  0  0  0
  8 22  2  0  0  0
  9 23  2  0  0  0
M  CHG  1  20  -1
M  END
> <rmsd>
0.0569921322

$$$$
ZINC26249456


 27 29  0  0  0  0  0  0  0  0999 V2000
   -2.2556   -1.1553   -0.9588 C   0  0  0  0  0
   -3.1566   -0.4829   -0.1600 C   0  0  0  0  0
   -4.1210   -2.4526   -0.1590 C   0  0  0  0  0
    3.2681    0.4387   -0.1122 C   0  0  0  0  0
    3.8147   -0.0253    1.0367 C   0  0  0  0  0
    1.2559    1.7362   -0.9540 C   0  0  0  0  0
   -3.0265    0.9531    0.2064 C   0  0  0  0  0
    3.8100   -0.0312   -1.4572 C   0  0  0  0  0
   -1.8491    1.7337   -0.3161 C   0  0  0  0  0
    3.2262    0.2516    2.4184 C   0  0  0  0  0
    0.4833    2.3493    0.2488 C   0  0  0  0  0
    1.7286    1.9723    1.0805 C   0  0  0  0  0
   -4.6021    3.4254    2.0331 C   0  0  0  0  0
    5.0518   -0.8869    1.1031 C   0  0  0  0  0
   -4.2272   -1.2250    0.2993 N   0  0  0  0  0
   -3.9068    1.5283    0.9690 N   0  0  0  0  0
    2.1937    1.2692   -0.1014 N   0  0  0  0  0
   -5.0102   -3.4473    0.1018 N   0  0  0  0  0
   -0.7815    1.6741    0.5356 N   0  0  0  0  0
    3.2524   -1.0615   -1.9173 O   0  0  0  0  0
    1.0794    1.6278   -2.1448 O   0  0  0  0  0
    4.7412    0.6753   -1.9241 O   0  0  0  0  0
   -1.9661    2.3039   -1.3888 O   0  0  0  0  0
    6.0417   -0.2276    1.8646 O   0  0  0  0  0
   -3.5961    2.8761    1.1961 O   0  0  0  0  0
   -2.7582   -2.7840   -1.1478 S   0  0  0  0  0
    1.4762    0.7695    2.4055 S   0  0  0  0  0
  1 26  1  0  0  0
  2  7  1  0  0  0
  2 15  1  0  0  0
  3 18  1  0  0  0
  3 26  1  0  0  0
  4  8  1  0  0  0
  4 17  1  0  0  0
  6 17  1  0  0  0
  7  9  1  0  0  0
  8 20  1  0  0  0
  9 19  1  0  0  0
 10  5  1  0  0  0
 10 27  1  0  0  0
 11  6  1  0  0  0
 11 12  1  0  0  0
 11 19  1  0  0  0
 12 17  1  0  0  0
 12 27  1  0  0  0
 13 25  1  0  0  0
 14  5  1  0  0  0
 14 24  1  0  0  0
 16 25  1  0  0  0
  1  2  2  0  0  0
  3 15  2  0  0  0
  4  5  2  0  0  0
  6 21  2  0  0  0
  7 16  2  0  0  0
  8 22  2  0  0  0
  9 23  2  0  0  0
M  CHG  1  20  -1
M  END
> <rmsd>
0.360002398

$$$$
ZINC26249456


 27 29  0  0  0  0  0  0  0  0999 V2000
   -2.5782   -1.2650   -0.8725 C   0  0  0  0  0
   -3.3842   -0.4826   -0.0722 C   0  0  0  0  0
   -4.5212   -2.3544    0.0442 C   0  0  0  0  0
    3.0946   -0.1513   -0.2825 C   0  0  0  0  0
    3.6403   -0.6185    0.8655 C   0  0  0  0  0
    1.1770    1.2913   -1.1087 C   0  0  0  0  0
   -3.1116    0.9486    0.2290 C   0  0  0  0  0
    3.5408   -0.7203   -1.6243 C   0  0  0  0  0
   -1.8894    1.5974   -0.3657 C   0  0  0  0  0
    3.1318   -0.2358    2.2536 C   0  0  0  0  0
    0.5087    2.0185    0.0930 C   0  0  0  0  0
    1.7456    1.5617    0.8967 C   0  0  0  0  0
   -4.3881    3.6233    2.0032 C   0  0  0  0  0
    4.7965   -1.5864    0.9257 C   0  0  0  0  0
   -4.4991   -1.1054    0.4540 N   0  0  0  0  0
   -3.9071    1.6308    0.9964 N   0  0  0  0  0
    2.1005    0.7738   -0.2699 N   0  0  0  0  0
   -5.4858   -3.2527    0.3767 N   0  0  0  0  0
   -0.8000    1.4734    0.4508 N   0  0  0  0  0
    2.8757   -1.7124   -2.0215 O   0  0  0  0  0
    0.9465    1.1536   -2.2872 O   0  0  0  0  0
    4.5135   -0.1206   -2.1520 O   0  0  0  0  0
   -1.9950    2.1341   -1.4567 O   0  0  0  0  0
    5.8698   -0.9916    1.6247 O   0  0  0  0  0
   -3.4680    2.9524    1.1561 O   0  0  0  0  0
   -3.2321   -2.8470   -0.9757 S   0  0  0  0  0
    1.4362    0.4390    2.2789 S   0  0  0  0  0
  1 26  1  0  0  0
  2  7  1  0  0  0
  2 15  1  0  0  0
  3 18  1  0  0  0
  3 26  1  0  0  0
  4  8  1  0  0  0
  4 17  1  0  0  0
  6 17  1  0  0  0
  7  9  1  0  0  0
  8 20  1  0  0  0
  9 19  1  0  0  0
 10  5  1  0  0  0
 10 27  1  0  0  0
 11  6  1  0  0  0
 11 12  1  0  0  0
 11 19  1  0  0  0
 12 17  1  0  0  0
 12 27  1  0  0  0
 13 25  1  0  0  0
 14  5  1  0  0  0
 14 24  1  0  0  0
 16 25  1  0  0  0
  1  2  2  0  0  0
  3 15  2  0  0  0
  4  5  2  0  0  0
  6 21  2  0  0  0
  7 16  2  0  0  0
  8 22  2  0  0  0
  9 23  2  0  0  0
M  CHG  1  20  -1
M  END
> <rmsd>
0.0604130886

$$$$
ZINC39308907


 27 29  0  0  0  0  0  0  0  0999 V2000
   -4.4577   -1.1946    0.4361 C   0  0  0  0  0
   -3.4038   -0.4589   -0.0642 C   0  0  0  0  0
   -2.9667   -2.3708   -1.0459 C   0  0  0  0  0
    3.4873    0.8351   -0.5808 C   0  0  0  0  0
    4.4142    1.0078    0.3910 C   0  0  0  0  0
    1.1031    1.4669   -1.1590 C   0  0  0  0  0
   -3.1622    0.9714    0.2672 C   0  0  0  0  0
    3.8892    0.2389   -1.9244 C   0  0  0  0  0
   -1.9744    1.6683   -0.3434 C   0  0  0  0  0
    4.1277    1.7272    1.7090 C   0  0  0  0  0
    0.4223    2.1475    0.0652 C   0  0  0  0  0
    1.6281    1.6137    0.8696 C   0  0  0  0  0
    7.4125   -0.8966    1.3366 C   0  0  0  0  0
    5.8372    0.5116    0.3080 C   0  0  0  0  0
   -2.5476   -1.1318   -0.9138 N   0  0  0  0  0
   -3.9616    1.6148    1.0634 N   0  0  0  0  0
    2.2087    1.2613   -0.4123 N   0  0  0  0  0
   -2.3527   -3.3094   -1.8139 N   0  0  0  0  0
   -0.8588    1.5541    0.4398 N   0  0  0  0  0
    3.8052   -1.0155   -1.9892 O   0  0  0  0  0
    0.8228    1.2614   -2.3165 O   0  0  0  0  0
    4.2504    1.0820   -2.7867 O   0  0  0  0  0
   -2.1253    2.2330   -1.4150 O   0  0  0  0  0
   -3.5630    2.9428    1.2371 O   0  0  0  0  0
    6.0800   -0.3936    1.3644 O   0  0  0  0  0
   -4.3846   -2.7946   -0.1770 S   0  0  0  0  0
    2.6851    2.8452    1.6597 S   0  0  0  0  0
  1 26  1  0  0  0
  2  7  1  0  0  0
  2 15  1  0  0  0
  3 18  1  0  0  0
  3 26  1  0  0  0
  4  8  1  0  0  0
  4 17  1  0  0  0
  6 17  1  0  0  0
  7  9  1  0  0  0
  8 20  1  0  0  0
  9 19  1  0  0  0
 10  5  1  0  0  0
 10 27  1  0  0  0
 11  6  1  0  0  0
 11 12  1  0  0  0
 11 19  1  0  0  0
 12 17  1  0  0  0
 12 27  1  0  0  0
 13 25  1  0  0  0
 14  5  1  0  0  0
 14 25  1  0  0  0
 16 24  1  0  0  0
  1  2  2  0  0  0
  3 15  2  0  0  0
  4  5  2  0  0  0
  6 21  2  0  0  0
  7 16  2  0  0  0
  8 22  2  0  0  0
  9 23  2  0  0  0
M  CHG  1  20  -1
M  END
> <rmsd>
0.19062981

$$$$
ZINC39308907


 27 29  0  0  0  0  0  0  0  0999 V2000
   -4.6645   -1.0738    0.5532 C   0  0  0  0  0
   -3.5396   -0.4745    0.0263 C   0  0  0  0  0
   -3.2614   -2.4855   -0.8035 C   0  0  0  0  0
    3.4486    0.1559   -0.4180 C   0  0  0  0  0
    4.3704    0.3167    0.5606 C   0  0  0  0  0
    1.1420    0.9537   -1.0972 C   0  0  0  0  0
   -3.1746    0.9492    0.2588 C   0  0  0  0  0
    3.8177   -0.5721   -1.7049 C   0  0  0  0  0
   -1.9180    1.4896   -0.3721 C   0  0  0  0  0
    4.1279    1.1548    1.8158 C   0  0  0  0  0
    0.5050    1.7816    0.0578 C   0  0  0  0  0
    1.6432    1.2033    0.9273 C   0  0  0  0  0
    7.1663   -1.7727    1.7131 C   0  0  0  0  0
    5.7436   -0.3096    0.5478 C   0  0  0  0  0
   -2.7336   -1.2826   -0.7516 N   0  0  0  0  0
   -3.9258    1.7188    0.9869 N   0  0  0  0  0
    2.2113    0.7061   -0.3114 N   0  0  0  0  0
   -2.7221   -3.5297   -1.4867 N   0  0  0  0  0
   -0.8311    1.3346    0.4437 N   0  0  0  0  0
    3.6210   -1.8152   -1.6806 O   0  0  0  0  0
    0.8642    0.6886   -2.2431 O   0  0  0  0  0
    4.2689    0.1689   -2.6171 O   0  0  0  0  0
   -1.9984    1.9843   -1.4851 O   0  0  0  0  0
   -3.4110    3.0151    1.0734 O   0  0  0  0  0
    5.8848   -1.1518    1.6725 O   0  0  0  0  0
   -4.7267   -2.7150    0.0596 S   0  0  0  0  0
    2.7941    2.3906    1.6512 S   0  0  0  0  0
  1 26  1  0  0  0
  2  7  1  0  0  0
  2 15  1  0  0  0
  3 18  1  0  0  0
  3 26  1  0  0  0
  4  8  1  0  0  0
  4 17  1  0  0  0
  6 17  1  0  0  0
  7  9  1  0  0  0
  8 20  1  0  0  0
  9 19  1  0  0  0
 10  5  1  0  0  0
 10 27  1  0  0  0
 11  6  1  0  0  0
 11 12  1  0  0  0
 11 19  1  0  0  0
 12 17  1  0  0  0
 12 27  1  0  0  0
 13 25  1  0  0  0
 14  5  1  0  0  0
 14 25  1  0  0  0
 16 24  1  0  0  0
  1  2  2  0  0  0
  3 15  2  0  0  0
  4  5  2  0  0  0
  6 21  2  0  0  0
  7 16  2  0  0  0
  8 22  2  0  0  0
  9 23  2  0  0  0
M  CHG  1  20  -1
M  END
> <rmsd>
0.17056109

$$$$
ZINC39308907


 27 29  0  0  0  0  0  0  0  0999 V2000
   -2.7704   -1.3416   -0.7652 C   0  0  0  0  0
   -3.5234   -0.4797    0.0044 C   0  0  0  0  0
   -4.7726   -2.2718    0.1983 C   0  0  0  0  0
    3.4649    0.1673   -0.4129 C   0  0  0  0  0
    4.3832    0.3238    0.5697 C   0  0  0  0  0
    1.1590    0.9650   -1.0946 C   0  0  0  0  0
   -3.1620    0.9432    0.2471 C   0  0  0  0  0
    3.8397   -0.5517   -1.7032 C   0  0  0  0  0
   -1.9045    1.4901   -0.3762 C   0  0  0  0  0
    4.1349    1.1533    1.8295 C   0  0  0  0  0
    0.5165    1.7842    0.0636 C   0  0  0  0  0
    1.6530    1.2026    0.9331 C   0  0  0  0  0
    7.1795   -1.7674    1.7181 C   0  0  0  0  0
    5.7577   -0.2997    0.5574 C   0  0  0  0  0
   -4.6721   -1.0113    0.5574 N   0  0  0  0  0
   -3.9171    1.7067    0.9777 N   0  0  0  0  0
    2.2262    0.7144   -0.3069 N   0  0  0  0  0
   -5.7890   -3.0951    0.5687 N   0  0  0  0  0
   -0.8199    1.3320    0.4422 N   0  0  0  0  0
    3.6454   -1.7953   -1.6875 O   0  0  0  0  0
    0.8855    0.7066   -2.2431 O   0  0  0  0  0
    4.2924    0.1960   -2.6092 O   0  0  0  0  0
   -1.9822    1.9918   -1.4862 O   0  0  0  0  0
   -3.4052    3.0034    1.0742 O   0  0  0  0  0
    5.8969   -1.1488    1.6772 O   0  0  0  0  0
   -3.5206   -2.8833   -0.8034 S   0  0  0  0  0
    2.7992    2.3875    1.6683 S   0  0  0  0  0
  1 26  1  0  0  0
  2  7  1  0  0  0
  2 15  1  0  0  0
  3 18  1  0  0  0
  3 26  1  0  0  0
  4  8  1  0  0  0
  4 17  1  0  0  0
  6 17  1  0  0  0
  7  9  1  0  0  0
  8 20  1  0  0  0
  9 19  1  0  0  0
 10  5  1  0  0  0
 10 27  1  0  0  0
 11  6  1  0  0  0
 11 12  1  0  0  0
 11 19  1  0  0  0
 12 17  1  0  0  0
 12 27  1  0  0  0
 13 25  1  0  0  0
 14  5  1  0  0  0
 14 25  1  0  0  0
 16 24  1  0  0  0
  1  2  2  0  0  0
  3 15  2  0  0  0
  4  5  2  0  0  0
  6 21  2  0  0  0
  7 16  2  0  0  0
  8 22  2  0  0  0
  9 23  2  0  0  0
M  CHG  1  20  -1
M  END
> <rmsd>
0.19734624

$$$$
ZINC39308907


 27 29  0  0  0  0  0  0  0  0999 V2000
   -2.5794   -1.1911   -0.9324 C   0  0  0  0  0
   -3.3882   -0.4597   -0.0881 C   0  0  0  0  0
   -4.4681   -2.3669   -0.0091 C   0  0  0  0  0
    3.5032    0.8462   -0.5692 C   0  0  0  0  0
    4.4263    1.0125    0.4074 C   0  0  0  0  0
    1.1204    1.4797   -1.1514 C   0  0  0  0  0
   -3.1496    0.9684    0.2550 C   0  0  0  0  0
    3.9108    0.2607   -1.9158 C   0  0  0  0  0
   -1.9603    1.6712   -0.3458 C   0  0  0  0  0
    4.1341    1.7215    1.7298 C   0  0  0  0  0
    0.4343    2.1501    0.0754 C   0  0  0  0  0
    1.6377    1.6115    0.8801 C   0  0  0  0  0
    7.4233   -0.8956    1.3496 C   0  0  0  0  0
    5.8501    0.5186    0.3259 C   0  0  0  0  0
   -4.4720   -1.1322    0.4420 N   0  0  0  0  0
   -3.9527    1.6047    1.0531 N   0  0  0  0  0
    2.2235    1.2696   -0.4022 N   0  0  0  0  0
   -5.3984   -3.3037    0.3148 N   0  0  0  0  0
   -0.8475    1.5523    0.4406 N   0  0  0  0  0
    3.8285   -0.9932   -1.9905 O   0  0  0  0  0
    0.8447    1.2826   -2.3115 O   0  0  0  0  0
    4.2742    1.1108   -2.7702 O   0  0  0  0  0
   -2.1079    2.2439   -1.4136 O   0  0  0  0  0
   -3.5562    2.9319    1.2384 O   0  0  0  0  0
    6.0901   -0.3943    1.3762 O   0  0  0  0  0
   -3.1900   -2.7874   -1.0742 S   0  0  0  0  0
    2.6904    2.8382    1.6836 S   0  0  0  0  0
  1 26  1  0  0  0
  2  7  1  0  0  0
  2 15  1  0  0  0
  3 18  1  0  0  0
  3 26  1  0  0  0
  4  8  1  0  0  0
  4 17  1  0  0  0
  6 17  1  0  0  0
  7  9  1  0  0  0
  8 20  1  0  0  0
  9 19  1  0  0  0
 10  5  1  0  0  0
 10 27  1  0  0  0
 11  6  1  0  0  0
 11 12  1  0  0  0
 11 19  1  0  0  0
 12 17  1  0  0  0
 12 27  1  0  0  0
 13 25  1  0  0  0
 14  5  1  0  0  0
 14 25  1  0  0  0
 16 24  1  0  0  0
  1  2  2  0  0  0
  3 15  2  0  0  0
  4  5  2  0  0  0
  6 21  2  0  0  0
  7 16  2  0  0  0
  8 22  2  0  0  0
  9 23  2  0  0  0
M  CHG  1  20  -1
M  END
> <rmsd>
0.165392578

$$$$
ZINC11613988


 29 31  0  0  0  0  0  0  0  0999 V2000
   -3.8641   -3.3239    0.0878 C   0  0  0  0  0
   -3.7125   -2.3081    1.0269 C   0  0  0  0  0
   -3.6779   -3.0548   -1.2684 C   0  0  0  0  0
   -3.3741   -1.0193    0.6136 C   0  0  0  0  0
    1.6323    1.7817   -1.7078 C   0  0  0  0  0
    1.6935   -0.4159   -0.7059 C   0  0  0  0  0
    0.5135    2.1013   -0.9386 C   0  0  0  0  0
    0.5747   -0.0963    0.0634 C   0  0  0  0  0
   -2.8075   -0.1857   -3.4770 C   0  0  0  0  0
   -2.6560    0.8301   -2.5378 C   0  0  0  0  0
   -3.3371   -1.7633   -1.7025 C   0  0  0  0  0
   -3.1830   -0.7304   -0.7474 C   0  0  0  0  0
    2.2223    0.5231   -1.5915 C   0  0  0  0  0
   -0.0153    1.1623   -0.0530 C   0  0  0  0  0
   -3.1459   -1.4745   -3.0635 C   0  0  0  0  0
   -2.8422    0.5611   -1.1815 C   0  0  0  0  0
    3.4034    0.1859   -2.4026 C   0  0  0  0  0
    0.1334   -6.3649   -7.4604 C   0  0  0  0  0
   -1.0360   -6.0073   -6.5569 C   0  0  0  0  0
   -0.9752   -4.5456   -6.1143 C   0  0  0  0  0
   -2.1692   -4.1813   -5.2348 C   0  0  0  0  0
   -2.1385   -2.7160   -4.8242 C   0  0  0  0  0
   -1.1698    1.4913    0.7390 N   0  0  0  0  0
    3.9291   -0.9830   -2.2759 O   0  0  0  0  0
    3.8724    1.0710   -3.2120 O   0  0  0  0  0
   -3.7182    1.8645    0.8823 O   0  0  0  0  0
   -2.4208    3.1154   -0.8645 O   0  0  0  0  0
   -3.2821   -2.4387   -4.0211 O   0  0  0  0  0
   -2.6253    1.9105   -0.0766 S   0  0  0  0  0
  1  2  1  0  0  0
  3 11  1  0  0  0
  4 12  1  0  0  0
  5 13  1  0  0  0
  6  8  1  0  0  0
  7 14  1  0  0  0
  9 15  1  0  0  0
 10 16  1  0  0  0
 11 12  1  0  0  0
 13 17  1  0  0  0
 14 23  1  0  0  0
 15 28  1  0  0  0
 17 24  1  0  0  0
 18 19  1  0  0  0
 19 20  1  0  0  0
 20 21  1  0  0  0
 21 22  1  0  0  0
 22 28  1  0  0  0
 29 16  1  0  0  0
 29 23  1  0  0  0
  1  3  2  0  0  0
  2  4  2  0  0  0
  5  7  2  0  0  0
  6 13  2  0  0  0
  8 14  2  0  0  0
  9 10  2  0  0  0
 11 15  2  0  0  0
 12 16  2  0  0  0
 17 25  2  0  0  0
 29 26  2  0  0  0
 29 27  2  0  0  0
M  CHG  1  24  -1
M  END
> <rmsd>
0.46754995

$$$$
ZINC11613988


 29 31  0  0  0  0  0  0  0  0999 V2000
   -3.8636   -3.3242    0.0875 C   0  0  0  0  0
   -3.7119   -2.3084    1.0266 C   0  0  0  0  0
   -3.6774   -3.0551   -1.2688 C   0  0  0  0  0
   -3.3736   -1.0197    0.6133 C   0  0  0  0  0
    1.6329    1.7814   -1.7081 C   0  0  0  0  0
    1.6940   -0.4162   -0.7062 C   0  0  0  0  0
    0.5141    2.1010   -0.9389 C   0  0  0  0  0
    0.5752   -0.0966    0.0631 C   0  0  0  0  0
   -2.8070   -0.1860   -3.4773 C   0  0  0  0  0
   -2.6554    0.8298   -2.5381 C   0  0  0  0  0
   -3.3366   -1.7636   -1.7028 C   0  0  0  0  0
   -3.1824   -0.7307   -0.7478 C   0  0  0  0  0
    2.2228    0.5227   -1.5919 C   0  0  0  0  0
   -0.0147    1.1620   -0.0533 C   0  0  0  0  0
   -3.1453   -1.4749   -3.0639 C   0  0  0  0  0
   -2.8416    0.5608   -1.1818 C   0  0  0  0  0
    3.4040    0.1856   -2.4029 C   0  0  0  0  0
   -7.5083   -4.6023   -8.0668 C   0  0  0  0  0
   -6.4081   -4.7603   -7.0293 C   0  0  0  0  0
   -5.8675   -3.4045   -6.5756 C   0  0  0  0  0
   -4.7867   -3.5662   -5.5090 C   0  0  0  0  0
   -4.2725   -2.2191   -5.0212 C   0  0  0  0  0
   -1.1692    1.4910    0.7387 N   0  0  0  0  0
    3.9296   -0.9833   -2.2763 O   0  0  0  0  0
    3.8730    1.0707   -3.2123 O   0  0  0  0  0
   -3.7176    1.8642    0.8819 O   0  0  0  0  0
   -2.4202    3.1151   -0.8649 O   0  0  0  0  0
   -3.2816   -2.4390   -4.0215 O   0  0  0  0  0
   -2.6248    1.9102   -0.0769 S   0  0  0  0  0
  1  2  1  0  0  0
  3 11  1  0  0  0
  4 12  1  0  0  0
  5 13  1  0  0  0
  6  8  1  0  0  0
  7 14  1  0  0  0
  9 15  1  0  0  0
 10 16  1  0  0  0
 11 12  1  0  0  0
 13 17  1  0  0  0
 14 23  1  0  0  0
 15 28  1  0  0  0
 17 24  1  0  0  0
 18 19  1  0  0  0
 19 20  1  0  0  0
 20 21  1  0  0  0
 21 22  1  0  0  0
 22 28  1  0  0  0
 29 16  1  0  0  0
 29 23  1  0  0  0
  1  3  2  0  0  0
  2  4  2  0  0  0
  5  7  2  0  0  0
  6 13  2  0  0  0
  8 14  2  0  0  0
  9 10  2  0  0  0
 11 15  2  0  0  0
 12 16  2  0  0  0
 17 25  2  0  0  0
 29 26  2  0  0  0
 29 27  2  0  0  0
M  CHG  1  24  -1
M  END
> <rmsd>
0.46754998

$$$$
ZINC11613988


 29 31  0  0  0  0  0  0  0  0999 V2000
   -3.8635   -3.3241    0.0878 C   0  0  0  0  0
   -3.7119   -2.3082    1.0268 C   0  0  0  0  0
   -3.6774   -3.0550   -1.2685 C   0  0  0  0  0
   -3.3736   -1.0195    0.6134 C   0  0  0  0  0
    1.6328    1.7815   -1.7082 C   0  0  0  0  0
    1.6940   -0.4160   -0.7062 C   0  0  0  0  0
    0.5140    2.1011   -0.9390 C   0  0  0  0  0
    0.5752   -0.0964    0.0631 C   0  0  0  0  0
   -2.8071   -0.1860   -3.4772 C   0  0  0  0  0
   -2.6555    0.8298   -2.5381 C   0  0  0  0  0
   -3.3366   -1.7636   -1.7027 C   0  0  0  0  0
   -3.1825   -0.7306   -0.7477 C   0  0  0  0  0
    2.2227    0.5229   -1.5919 C   0  0  0  0  0
   -0.0148    1.1622   -0.0533 C   0  0  0  0  0
   -3.1454   -1.4749   -3.0637 C   0  0  0  0  0
   -2.8417    0.5609   -1.1818 C   0  0  0  0  0
    3.4039    0.1858   -2.4030 C   0  0  0  0  0
   -3.0991   -6.5669   -7.2895 C   0  0  0  0  0
   -4.2021   -5.7407   -6.6475 C   0  0  0  0  0
   -3.6697   -4.4077   -6.1222 C   0  0  0  0  0
   -4.7867   -3.5663   -5.5088 C   0  0  0  0  0
   -4.2726   -2.2192   -5.0210 C   0  0  0  0  0
   -1.1693    1.4912    0.7387 N   0  0  0  0  0
    3.9296   -0.9831   -2.2762 O   0  0  0  0  0
    3.8729    1.0708   -3.2124 O   0  0  0  0  0
   -3.7177    1.8644    0.8819 O   0  0  0  0  0
   -2.4204    3.1152   -0.8649 O   0  0  0  0  0
   -3.2816   -2.4391   -4.0213 O   0  0  0  0  0
   -2.6248    1.9104   -0.0769 S   0  0  0  0  0
  1  2  1  0  0  0
  3 11  1  0  0  0
  4 12  1  0  0  0
  5 13  1  0  0  0
  6  8  1  0  0  0
  7 14  1  0  0  0
  9 15  1  0  0  0
 10 16  1  0  0  0
 11 12  1  0  0  0
 13 17  1  0  0  0
 14 23  1  0  0  0
 15 28  1  0  0  0
 17 24  1  0  0  0
 18 19  1  0  0  0
 19 20  1  0  0  0
 20 21  1  0  0  0
 21 22  1  0  0  0
 22 28  1  0  0  0
 29 16  1  0  0  0
 29 23  1  0  0  0
  1  3  2  0  0  0
  2  4  2  0  0  0
  5  7  2  0  0  0
  6 13  2  0  0  0
  8 14  2  0  0  0
  9 10  2  0  0  0
 11 15  2  0  0  0
 12 16  2  0  0  0
 17 25  2  0  0  0
 29 26  2  0  0  0
 29 27  2  0  0  0
M  CHG  1  24  -1
M  END
> <rmsd>
0.467709541

$$$$
ZINC11613988


 29 31  0  0  0  0  0  0  0  0999 V2000
   -3.8639   -3.3236    0.0879 C   0  0  0  0  0
   -3.7123   -2.3077    1.0270 C   0  0  0  0  0
   -3.6777   -3.0544   -1.2684 C   0  0  0  0  0
   -3.3739   -1.0190    0.6137 C   0  0  0  0  0
    1.6326    1.7820   -1.7077 C   0  0  0  0  0
    1.6937   -0.4155   -0.7058 C   0  0  0  0  0
    0.5138    2.1016   -0.9385 C   0  0  0  0  0
    0.5749   -0.0959    0.0635 C   0  0  0  0  0
   -2.8073   -0.1853   -3.4769 C   0  0  0  0  0
   -2.6557    0.8304   -2.5377 C   0  0  0  0  0
   -3.3369   -1.7630   -1.7024 C   0  0  0  0  0
   -3.1827   -0.7300   -0.7474 C   0  0  0  0  0
    2.2225    0.5234   -1.5914 C   0  0  0  0  0
   -0.0150    1.1627   -0.0529 C   0  0  0  0  0
   -3.1456   -1.4742   -3.0635 C   0  0  0  0  0
   -2.8419    0.5614   -1.1814 C   0  0  0  0  0
    3.4037    0.1863   -2.4025 C   0  0  0  0  0
   -4.7460   -6.3479   -7.1550 C   0  0  0  0  0
   -3.4745   -6.0005   -6.3971 C   0  0  0  0  0
   -3.4312   -4.5187   -6.0252 C   0  0  0  0  0
   -2.1690   -4.1809   -5.2348 C   0  0  0  0  0
   -2.1382   -2.7156   -4.8241 C   0  0  0  0  0
   -1.1695    1.4916    0.7391 N   0  0  0  0  0
    3.9293   -0.9826   -2.2758 O   0  0  0  0  0
    3.8727    1.0713   -3.2119 O   0  0  0  0  0
   -3.7179    1.8649    0.8824 O   0  0  0  0  0
   -2.4206    3.1158   -0.8644 O   0  0  0  0  0
   -3.2819   -2.4384   -4.0211 O   0  0  0  0  0
   -2.6251    1.9109   -0.0765 S   0  0  0  0  0
  1  2  1  0  0  0
  3 11  1  0  0  0
  4 12  1  0  0  0
  5 13  1  0  0  0
  6  8  1  0  0  0
  7 14  1  0  0  0
  9 15  1  0  0  0
 10 16  1  0  0  0
 11 12  1  0  0  0
 13 17  1  0  0  0
 14 23  1  0  0  0
 15 28  1  0  0  0
 17 24  1  0  0  0
 18 19  1  0  0  0
 19 20  1  0  0  0
 20 21  1  0  0  0
 21 22  1  0  0  0
 22 28  1  0  0  0
 29 16  1  0  0  0
 29 23  1  0  0  0
  1  3  2  0  0  0
  2  4  2  0  0  0
  5  7  2  0  0  0
  6 13  2  0  0  0
  8 14  2  0  0  0
  9 10  2  0  0  0
 11 15  2  0  0  0
 12 16  2  0  0  0
 17 25  2  0  0  0
 29 26  2  0  0  0
 29 27  2  0  0  0
M  CHG  1  24  -1
M  END
> <rmsd>
0.467550069

$$$$
ZINC35397657


 27 28  0  0  0  0  0  0  0  0999 V2000
   -2.9245   -2.3314   -1.7499 C   0  0  0  0  0
   -3.3415   -3.1241   -0.6807 C   0  0  0  0  0
    0.8710    0.4567   -0.6660 C   0  0  0  0  0
   -3.3998   -1.1730    0.7430 C   0  0  0  0  0
   -0.0801    2.4271   -1.5984 C   0  0  0  0  0
    1.8325    0.4823   -1.6701 C   0  0  0  0  0
   -0.1070    1.4440   -0.6225 C   0  0  0  0  0
   -2.7449   -0.9596   -1.5727 C   0  0  0  0  0
   -2.9825   -0.3803   -0.3263 C   0  0  0  0  0
   -3.5793   -2.5448    0.5658 C   0  0  0  0  0
    1.7724    1.5082   -2.5994 C   0  0  0  0  0
    2.8675   -0.5649   -1.7142 C   0  0  0  0  0
    1.8137    1.7454   -5.8511 C   0  0  0  0  0
    3.7935    3.7259   -3.6869 C   0  0  0  0  0
   -2.1189   -0.8839   -3.8658 C   0  0  0  0  0
    2.5115    0.8575   -4.8777 C   0  0  0  0  0
    3.9832    2.2693   -3.4323 C   0  0  0  0  0
    0.8377    2.4849   -2.5893 N   0  0  0  0  0
   -1.1149    1.4446    0.4035 N   0  0  0  0  0
    2.7493    1.5408   -3.6260 N   0  0  0  0  0
    2.6344   -1.6372   -2.3875 O   0  0  0  0  0
    3.9698   -0.3725   -1.0777 O   0  0  0  0  0
   -3.5953    1.7291    1.0525 O   0  0  0  0  0
   -2.9466    2.0163   -1.3550 O   0  0  0  0  0
   -2.3369   -0.2045   -2.6311 O   0  0  0  0  0
   -2.7647    1.3376   -0.0789 S   0  0  0  0  0
   -4.0945   -3.5233    1.8845 Cl  0  0  0  0  0
  1  8  1  0  0  0
  2 10  1  0  0  0
  3  7  1  0  0  0
  4  9  1  0  0  0
  5 18  1  0  0  0
  6 11  1  0  0  0
  6 12  1  0  0  0
  7 19  1  0  0  0
  8 25  1  0  0  0
 10 27  1  0  0  0
 11 20  1  0  0  0
 12 21  1  0  0  0
 13 16  1  0  0  0
 14 17  1  0  0  0
 15 25  1  0  0  0
 16 20  1  0  0  0
 17 20  1  0  0  0
 26  9  1  0  0  0
 26 19  1  0  0  0
  1  2  2  0  0  0
  3  6  2  0  0  0
  4 10  2  0  0  0
  5  7  2  0  0  0
  8  9  2  0  0  0
 11 18  2  0  0  0
 12 22  2  0  0  0
 26 23  2  0  0  0
 26 24  2  0  0  0
M  CHG  1  21  -1
M  END
> <rmsd>
0.508167386

$$$$
ZINC35397657


 27 28  0  0  0  0  0  0  0  0999 V2000
   -2.4402   -2.2621   -1.7871 C   0  0  0  0  0
   -2.8882   -3.1055   -0.7706 C   0  0  0  0  0
    1.0066    0.7930   -0.3243 C   0  0  0  0  0
   -3.2310   -1.1929    0.6653 C   0  0  0  0  0
   -0.0097    2.7006   -1.3164 C   0  0  0  0  0
    2.0504    0.9132   -1.2351 C   0  0  0  0  0
   -0.0468    1.6998   -0.3591 C   0  0  0  0  0
   -2.3874   -0.8840   -1.5775 C   0  0  0  0  0
   -2.7828   -0.3494   -0.3513 C   0  0  0  0  0
   -3.2837   -2.5709    0.4556 C   0  0  0  0  0
    1.9934    1.9492   -2.1535 C   0  0  0  0  0
    3.1652   -0.0487   -1.1963 C   0  0  0  0  0
    2.3111    2.2518   -5.3844 C   0  0  0  0  0
    3.9218    4.3389   -3.0232 C   0  0  0  0  0
   -1.5635   -0.7152   -3.8020 C   0  0  0  0  0
    2.9860    1.4025   -4.3617 C   0  0  0  0  0
    4.2030    2.8969   -2.7698 C   0  0  0  0  0
    0.9867    2.8493   -2.2177 N   0  0  0  0  0
   -1.1407    1.6016    0.5695 N   0  0  0  0  0
    3.0538    2.0780   -3.0852 N   0  0  0  0  0
    3.0805   -1.1226   -1.9012 O   0  0  0  0  0
    4.1863    0.2171   -0.4587 O   0  0  0  0  0
   -3.6846    1.6784    0.9905 O   0  0  0  0  0
   -2.8447    2.0621   -1.3433 O   0  0  0  0  0
   -1.9463   -0.0789   -2.5845 O   0  0  0  0  0
   -2.7260    1.3752   -0.0641 S   0  0  0  0  0
   -3.8371   -3.6120    1.7093 Cl  0  0  0  0  0
  1  8  1  0  0  0
  2 10  1  0  0  0
  3  7  1  0  0  0
  4  9  1  0  0  0
  5 18  1  0  0  0
  6 11  1  0  0  0
  6 12  1  0  0  0
  7 19  1  0  0  0
  8 25  1  0  0  0
 10 27  1  0  0  0
 11 20  1  0  0  0
 12 21  1  0  0  0
 13 16  1  0  0  0
 14 17  1  0  0  0
 15 25  1  0  0  0
 16 20  1  0  0  0
 17 20  1  0  0  0
 26  9  1  0  0  0
 26 19  1  0  0  0
  1  2  2  0  0  0
  3  6  2  0  0  0
  4 10  2  0  0  0
  5  7  2  0  0  0
  8  9  2  0  0  0
 11 18  2  0  0  0
 12 22  2  0  0  0
 26 23  2  0  0  0
 26 24  2  0  0  0
M  CHG  1  21  -1
M  END
> <rmsd>
0.689541817

$$$$
ZINC16923832


 29 31  0  0  0  0  0  0  0  0999 V2000
   -4.3082   -2.8966   -1.3648 C   0  0  0  0  0
   -4.1277   -1.5559   -1.7048 C   0  0  0  0  0
    0.3873   -0.3026    1.6170 C   0  0  0  0  0
    1.3124   -1.3456    1.6624 C   0  0  0  0  0
    1.2860    0.4019   -0.5121 C   0  0  0  0  0
   -3.3335   -1.0963    0.5302 C   0  0  0  0  0
    2.2111   -0.6410   -0.4667 C   0  0  0  0  0
   -4.0015   -3.3371   -0.0774 C   0  0  0  0  0
   -3.5141   -2.4370    0.8701 C   0  0  0  0  0
   -3.6403   -0.6558   -0.7572 C   0  0  0  0  0
    0.3742    0.5712    0.5297 C   0  0  0  0  0
    2.2243   -1.5147    0.6206 C   0  0  0  0  0
   -3.5772    1.7483   -0.1585 C   0  0  0  0  0
   -3.1580    1.1153   -2.4097 C   0  0  0  0  0
    3.1666   -0.8064   -1.5764 C   0  0  0  0  0
   -0.7175    2.5853   -0.5159 C   0  0  0  0  0
   -3.1894    3.0936   -0.7263 C   0  0  0  0  0
   -4.2034   -4.7772    0.2631 C   0  0  0  0  0
   -3.1792   -2.8857    2.2546 C   0  0  0  0  0
   -1.8481    3.5428   -0.1701 C   0  0  0  0  0
   -3.4538    0.7274   -1.1083 N   0  0  0  0  0
   -0.5647    1.6292    0.4840 N   0  0  0  0  0
    3.1201    0.0216   -2.5605 O   0  0  0  0  0
   -3.9674    1.6517    1.0028 O   0  0  0  0  0
   -2.9117    0.4296   -3.3908 O   0  0  0  0  0
    4.0143   -1.7734   -1.5231 O   0  0  0  0  0
   -0.0670    2.6932   -1.5501 O   0  0  0  0  0
    3.1205   -2.5397    0.6828 O   0  0  0  0  0
   -3.0987    2.8662   -2.5117 S   0  0  0  0  0
  1  8  1  0  0  0
  2 10  1  0  0  0
  3 11  1  0  0  0
  4 12  1  0  0  0
  5  7  1  0  0  0
  6  9  1  0  0  0
  7 15  1  0  0  0
 10 21  1  0  0  0
 11 22  1  0  0  0
 12 28  1  0  0  0
 13 21  1  0  0  0
 14 21  1  0  0  0
 14 29  1  0  0  0
 15 23  1  0  0  0
 16 22  1  0  0  0
 17 13  1  0  0  0
 17 20  1  0  0  0
 17 29  1  0  0  0
 18  8  1  0  0  0
 19  9  1  0  0  0
 20 16  1  0  0  0
  1  2  2  0  0  0
  3  4  2  0  0  0
  5 11  2  0  0  0
  6 10  2  0  0  0
  7 12  2  0  0  0
  8  9  2  0  0  0
 13 24  2  0  0  0
 14 25  2  0  0  0
 15 26  2  0  0  0
 16 27  2  0  0  0
M  CHG  1  23  -1
M  END
> <rmsd>
0.33086133

$$$$
ZINC16925394


 29 31  0  0  0  0  0  0  0  0999 V2000
   -3.5147   -2.4367    0.8703 C   0  0  0  0  0
   -4.3088   -2.8963   -1.3646 C   0  0  0  0  0
   -3.3337   -1.0961    0.5303 C   0  0  0  0  0
   -4.1279   -1.5557   -1.7047 C   0  0  0  0  0
    0.3874   -0.3017    1.6170 C   0  0  0  0  0
    1.3125   -1.3446    1.6625 C   0  0  0  0  0
    1.2860    0.4027   -0.5122 C   0  0  0  0  0
    2.2112   -0.6401   -0.4667 C   0  0  0  0  0
   -4.0023   -3.3368   -0.0772 C   0  0  0  0  0
   -3.6403   -0.6556   -0.7572 C   0  0  0  0  0
    0.3741    0.5720    0.5296 C   0  0  0  0  0
    2.2245   -1.5137    0.6207 C   0  0  0  0  0
   -3.5774    1.7485   -0.1587 C   0  0  0  0  0
   -3.1582    1.1154   -2.4098 C   0  0  0  0  0
    3.1667   -0.8055   -1.5763 C   0  0  0  0  0
   -0.7179    2.5859   -0.5162 C   0  0  0  0  0
   -3.1898    3.0938   -0.7267 C   0  0  0  0  0
   -2.9492   -5.6103    0.0163 C   0  0  0  0  0
   -4.1951   -4.7703    0.2858 C   0  0  0  0  0
   -1.8486    3.5433   -0.1705 C   0  0  0  0  0
   -3.4539    0.7276   -1.1084 N   0  0  0  0  0
   -0.5649    1.6298    0.4838 N   0  0  0  0  0
    3.1201    0.0224   -2.5605 O   0  0  0  0  0
   -3.9676    1.6520    1.0026 O   0  0  0  0  0
   -2.9117    0.4295   -3.3909 O   0  0  0  0  0
    4.0145   -1.7724   -1.5230 O   0  0  0  0  0
   -0.0674    2.6937   -1.5504 O   0  0  0  0  0
    3.1208   -2.5386    0.6830 O   0  0  0  0  0
   -3.0991    2.8663   -2.5120 S   0  0  0  0  0
  1  9  1  0  0  0
  2  4  1  0  0  0
  3 10  1  0  0  0
  5 11  1  0  0  0
  6 12  1  0  0  0
  7  8  1  0  0  0
  8 15  1  0  0  0
 10 21  1  0  0  0
 11 22  1  0  0  0
 12 28  1  0  0  0
 13 21  1  0  0  0
 14 21  1  0  0  0
 14 29  1  0  0  0
 15 23  1  0  0  0
 16 22  1  0  0  0
 17 13  1  0  0  0
 17 20  1  0  0  0
 17 29  1  0  0  0
 18 19  1  0  0  0
 19  9  1  0  0  0
 20 16  1  0  0  0
  1  3  2  0  0  0
  2  9  2  0  0  0
  4 10  2  0  0  0
  5  6  2  0  0  0
  7 11  2  0  0  0
  8 12  2  0  0  0
 13 24  2  0  0  0
 14 25  2  0  0  0
 15 26  2  0  0  0
 16 27  2  0  0  0
M  CHG  1  23  -1
M  END
> <rmsd>
0.330434263

$$$$
ZINC58366114


 27 29  0  0  0  0  0  0  0  0999 V2000
    1.0202    2.8836   -2.1913 C   0  0  0  0  0
   -0.0390    2.7668   -1.2914 C   0  0  0  0  0
    0.9953    0.8070   -0.3286 C   0  0  0  0  0
   -2.8540   -3.1013   -0.8024 C   0  0  0  0  0
   -3.2072   -1.2131    0.6628 C   0  0  0  0  0
   -2.3855   -0.8630   -1.5820 C   0  0  0  0  0
    2.0544    0.9239   -1.2287 C   0  0  0  0  0
    2.0669    1.9621   -2.1600 C   0  0  0  0  0
   -0.0515    1.7284   -0.3600 C   0  0  0  0  0
   -3.2457   -2.5886    0.4342 C   0  0  0  0  0
   -2.4239   -2.2385   -1.8106 C   0  0  0  0  0
   -2.7771   -0.3502   -0.3454 C   0  0  0  0  0
    3.1486   -0.0638   -1.1743 C   0  0  0  0  0
    2.8986    2.0511   -4.5099 C   0  0  0  0  0
    4.4695    2.4314   -2.6385 C   0  0  0  0  0
    3.0467    3.4403   -5.1200 C   0  0  0  0  0
    4.8068    3.8660   -3.0397 C   0  0  0  0  0
    3.1038    2.0948   -3.0576 N   0  0  0  0  0
   -1.1359    1.6091    0.5609 N   0  0  0  0  0
    3.0527   -1.1302   -1.8872 O   0  0  0  0  0
    4.1593    0.1767   -0.4157 O   0  0  0  0  0
   -3.6866    1.6730    0.9982 O   0  0  0  0  0
   -2.8588    2.0598   -1.3394 O   0  0  0  0  0
   -3.6588   -3.4179    1.4015 F   0  0  0  0  0
   -2.0482   -2.7309   -2.9984 F   0  0  0  0  0
    4.7184    4.1055   -4.8421 S   0  0  0  0  0
   -2.7299    1.3953   -0.0568 S   0  0  0  0  0
  1  2  1  0  0  0
  3  9  1  0  0  0
  4 10  1  0  0  0
  5 12  1  0  0  0
  6 11  1  0  0  0
  7  8  1  0  0  0
  7 13  1  0  0  0
  8 18  1  0  0  0
  9 19  1  0  0  0
 10 24  1  0  0  0
 11 25  1  0  0  0
 13 20  1  0  0  0
 14 16  1  0  0  0
 14 18  1  0  0  0
 15 17  1  0  0  0
 15 18  1  0  0  0
 16 26  1  0  0  0
 17 26  1  0  0  0
 27 12  1  0  0  0
 27 19  1  0  0  0
  1  8  2  0  0  0
  2  9  2  0  0  0
  3  7  2  0  0  0
  4 11  2  0  0  0
  5 10  2  0  0  0
  6 12  2  0  0  0
 13 21  2  0  0  0
 27 22  2  0  0  0
 27 23  2  0  0  0
M  CHG  1  20  -1
M  END
> <rmsd>
0.706512511

$$$$
ZINC58366114


 27 29  0  0  0  0  0  0  0  0999 V2000
    0.8682    2.5239   -2.5718 C   0  0  0  0  0
   -0.1075    2.5008   -1.5753 C   0  0  0  0  0
    0.8584    0.4769   -0.6764 C   0  0  0  0  0
   -3.3083   -3.1220   -0.7174 C   0  0  0  0  0
   -3.3754   -1.1954    0.7387 C   0  0  0  0  0
   -2.7440   -0.9365   -1.5789 C   0  0  0  0  0
    1.8341    0.5000   -1.6731 C   0  0  0  0  0
    1.8389    1.5234   -2.6207 C   0  0  0  0  0
   -0.1124    1.4774   -0.6276 C   0  0  0  0  0
   -3.5412   -2.5661    0.5404 C   0  0  0  0  0
   -2.9097   -2.3072   -1.7772 C   0  0  0  0  0
   -2.9768   -0.3805   -0.3210 C   0  0  0  0  0
    2.8491   -0.5699   -1.7021 C   0  0  0  0  0
    2.4502    1.5202   -5.0389 C   0  0  0  0  0
    4.2149    1.7971   -3.3290 C   0  0  0  0  0
    2.6469    2.8864   -5.6860 C   0  0  0  0  0
    4.6226    3.1961   -3.7866 C   0  0  0  0  0
    2.7939    1.5640   -3.6131 N   0  0  0  0  0
   -1.1113    1.4541    0.3922 N   0  0  0  0  0
    2.6045   -1.6334   -2.3830 O   0  0  0  0  0
    3.9421   -0.4009   -1.0454 O   0  0  0  0  0
   -3.5969    1.7230    1.0633 O   0  0  0  0  0
   -2.9655    2.0171   -1.3480 O   0  0  0  0  0
   -3.9242   -3.3494    1.5572 F   0  0  0  0  0
   -2.6866   -2.8410   -2.9854 F   0  0  0  0  0
    4.3837    3.4213   -5.5771 S   0  0  0  0  0
   -2.7681    1.3591   -0.0707 S   0  0  0  0  0
  1  2  1  0  0  0
  3  9  1  0  0  0
  4 10  1  0  0  0
  5 12  1  0  0  0
  6 11  1  0  0  0
  7  8  1  0  0  0
  7 13  1  0  0  0
  8 18  1  0  0  0
  9 19  1  0  0  0
 10 24  1  0  0  0
 11 25  1  0  0  0
 13 20  1  0  0  0
 14 16  1  0  0  0
 14 18  1  0  0  0
 15 17  1  0  0  0
 15 18  1  0  0  0
 16 26  1  0  0  0
 17 26  1  0  0  0
 27 12  1  0  0  0
 27 19  1  0  0  0
  1  8  2  0  0  0
  2  9  2  0  0  0
  3  7  2  0  0  0
  4 11  2  0  0  0
  5 10  2  0  0  0
  6 12  2  0  0  0
 13 21  2  0  0  0
 27 22  2  0  0  0
 27 23  2  0  0  0
M  CHG  1  20  -1
M  END
> <rmsd>
0.525604665

$$$$
ZINC58404387


 27 29  0  0  0  0  0  0  0  0999 V2000
   -2.8526   -3.1016   -0.8017 C   0  0  0  0  0
    1.0204    2.8836   -2.1911 C   0  0  0  0  0
   -0.0390    2.7667   -1.2913 C   0  0  0  0  0
   -3.2454   -2.5884    0.4344 C   0  0  0  0  0
   -2.4222   -2.2391   -1.8100 C   0  0  0  0  0
    0.9950    0.8066   -0.3288 C   0  0  0  0  0
    2.0543    0.9236   -1.2288 C   0  0  0  0  0
    2.0670    1.9620   -2.1599 C   0  0  0  0  0
   -0.0517    1.7282   -0.3601 C   0  0  0  0  0
   -3.2078   -1.2128    0.6621 C   0  0  0  0  0
   -2.3846   -0.8635   -1.5823 C   0  0  0  0  0
   -2.7775   -0.3503   -0.3462 C   0  0  0  0  0
    3.1484   -0.0641   -1.1744 C   0  0  0  0  0
    2.8989    2.0515   -4.5096 C   0  0  0  0  0
    4.4696    2.4313   -2.6380 C   0  0  0  0  0
    3.0471    3.4408   -5.1194 C   0  0  0  0  0
    4.8071    3.8659   -3.0389 C   0  0  0  0  0
    3.1039    2.0948   -3.0573 N   0  0  0  0  0
   -1.1362    1.6088    0.5607 N   0  0  0  0  0
    3.0525   -1.1304   -1.8876 O   0  0  0  0  0
    4.1590    0.1762   -0.4157 O   0  0  0  0  0
   -3.6869    1.6727    0.9978 O   0  0  0  0  0
   -2.8589    2.0600   -1.3398 O   0  0  0  0  0
   -3.5885   -0.7315    1.8538 F   0  0  0  0  0
   -1.9693   -0.0449   -2.5590 F   0  0  0  0  0
    4.7189    4.1058   -4.8412 S   0  0  0  0  0
   -2.7301    1.3952   -0.0572 S   0  0  0  0  0
  1  4  1  0  0  0
  2  8  1  0  0  0
  3  9  1  0  0  0
  5 11  1  0  0  0
  6  7  1  0  0  0
  7 13  1  0  0  0
  8 18  1  0  0  0
  9 19  1  0  0  0
 10 12  1  0  0  0
 10 24  1  0  0  0
 11 25  1  0  0  0
 13 20  1  0  0  0
 14 16  1  0  0  0
 14 18  1  0  0  0
 15 17  1  0  0  0
 15 18  1  0  0  0
 16 26  1  0  0  0
 17 26  1  0  0  0
 27 12  1  0  0  0
 27 19  1  0  0  0
  1  5  2  0  0  0
  2  3  2  0  0  0
  4 10  2  0  0  0
  6  9  2  0  0  0
  7  8  2  0  0  0
 11 12  2  0  0  0
 13 21  2  0  0  0
 27 22  2  0  0  0
 27 23  2  0  0  0
M  CHG  1  20  -1
M  END
> <rmsd>
0.706912816

$$$$
ZINC58404387


 27 29  0  0  0  0  0  0  0  0999 V2000
   -3.3068   -3.1224   -0.7169 C   0  0  0  0  0
    0.8682    2.5240   -2.5717 C   0  0  0  0  0
   -0.1076    2.5008   -1.5753 C   0  0  0  0  0
   -3.5408   -2.5659    0.5406 C   0  0  0  0  0
   -2.9080   -2.3079   -1.7768 C   0  0  0  0  0
    0.8581    0.4767   -0.6767 C   0  0  0  0  0
    1.8339    0.4999   -1.6733 C   0  0  0  0  0
    1.8389    1.5235   -2.6207 C   0  0  0  0  0
   -0.1127    1.4772   -0.6277 C   0  0  0  0  0
   -3.3760   -1.1950    0.7381 C   0  0  0  0  0
   -2.7432   -0.9370   -1.5793 C   0  0  0  0  0
   -2.9772   -0.3805   -0.3218 C   0  0  0  0  0
    2.8488   -0.5701   -1.7024 C   0  0  0  0  0
    2.4504    1.5206   -5.0389 C   0  0  0  0  0
    4.2149    1.7971   -3.3287 C   0  0  0  0  0
    2.6473    2.8870   -5.6856 C   0  0  0  0  0
    4.6228    3.1961   -3.7860 C   0  0  0  0  0
    2.7939    1.5642   -3.6130 N   0  0  0  0  0
   -1.1117    1.4538    0.3919 N   0  0  0  0  0
    2.6042   -1.6335   -2.3835 O   0  0  0  0  0
    3.9418   -0.4013   -1.0455 O   0  0  0  0  0
   -3.5973    1.7228    1.0629 O   0  0  0  0  0
   -2.9656    2.0173   -1.3483 O   0  0  0  0  0
   -3.6045   -0.6718    1.9508 F   0  0  0  0  0
   -2.3598   -0.1646   -2.6054 F   0  0  0  0  0
    4.3840    3.4217   -5.5765 S   0  0  0  0  0
   -2.7684    1.3590   -0.0711 S   0  0  0  0  0
  1  4  1  0  0  0
  2  8  1  0  0  0
  3  9  1  0  0  0
  5 11  1  0  0  0
  6  7  1  0  0  0
  7 13  1  0  0  0
  8 18  1  0  0  0
  9 19  1  0  0  0
 10 12  1  0  0  0
 10 24  1  0  0  0
 11 25  1  0  0  0
 13 20  1  0  0  0
 14 16  1  0  0  0
 14 18  1  0  0  0
 15 17  1  0  0  0
 15 18  1  0  0  0
 16 26  1  0  0  0
 17 26  1  0  0  0
 27 12  1  0  0  0
 27 19  1  0  0  0
  1  5  2  0  0  0
  2  3  2  0  0  0
  4 10  2  0  0  0
  6  9  2  0  0  0
  7  8  2  0  0  0
 11 12  2  0  0  0
 13 21  2  0  0  0
 27 22  2  0  0  0
 27 23  2  0  0  0
M  CHG  1  20  -1
M  END
> <rmsd>
0.526041687

$$$$
ZINC33253452


 29 31  0  0  0  0  0  0  0  0999 V2000
    0.7624    3.6522   -7.2194 C   0  0  0  0  0
    0.1423    2.7028   -6.4071 C   0  0  0  0  0
    2.1337    3.8799   -7.1040 C   0  0  0  0  0
    0.8935    1.9812   -5.4794 C   0  0  0  0  0
    2.8849    3.1584   -6.1764 C   0  0  0  0  0
   -0.0381    2.7673   -1.2899 C   0  0  0  0  0
    1.0211    2.8841   -2.1898 C   0  0  0  0  0
   -3.2446   -2.5881    0.4330 C   0  0  0  0  0
   -2.4195   -2.2380   -1.8106 C   0  0  0  0  0
   -3.2081   -1.2125    0.6611 C   0  0  0  0  0
   -2.3831   -0.8624   -1.5826 C   0  0  0  0  0
    0.9949    0.8064   -0.3284 C   0  0  0  0  0
    2.0542    0.9231   -1.2284 C   0  0  0  0  0
    2.2649    2.2090   -5.3640 C   0  0  0  0  0
   -0.0513    1.7285   -0.3591 C   0  0  0  0  0
    2.0673    1.9620   -2.1591 C   0  0  0  0  0
   -2.8502   -3.1009   -0.8028 C   0  0  0  0  0
   -2.7774   -0.3497   -0.3467 C   0  0  0  0  0
    3.1483   -0.0646   -1.1743 C   0  0  0  0  0
    4.2941    2.8900   -2.7424 C   0  0  0  0  0
    3.0734    1.4324   -4.3653 C   0  0  0  0  0
   -1.1361    1.6089    0.5614 N   0  0  0  0  0
    3.1302    2.0970   -3.0798 N   0  0  0  0  0
    3.0525   -1.1305   -1.8879 O   0  0  0  0  0
    4.1587    0.1753   -0.4151 O   0  0  0  0  0
   -3.6868    1.6729    0.9978 O   0  0  0  0  0
   -2.8582    2.0610   -1.3394 O   0  0  0  0  0
   -2.8839   -4.4221   -1.0214 F   0  0  0  0  0
   -2.7298    1.3957   -0.0571 S   0  0  0  0  0
  1  2  1  0  0  0
  3  5  1  0  0  0
  4 14  1  0  0  0
  6 15  1  0  0  0
  7 16  1  0  0  0
  8 17  1  0  0  0
  9 11  1  0  0  0
 10 18  1  0  0  0
 12 13  1  0  0  0
 13 19  1  0  0  0
 15 22  1  0  0  0
 16 23  1  0  0  0
 17 28  1  0  0  0
 19 24  1  0  0  0
 20 23  1  0  0  0
 21 14  1  0  0  0
 21 23  1  0  0  0
 29 18  1  0  0  0
 29 22  1  0  0  0
  1  3  2  0  0  0
  2  4  2  0  0  0
  5 14  2  0  0  0
  6  7  2  0  0  0
  8 10  2  0  0  0
  9 17  2  0  0  0
 11 18  2  0  0  0
 12 15  2  0  0  0
 13 16  2  0  0  0
 19 25  2  0  0  0
 29 26  2  0  0  0
 29 27  2  0  0  0
M  CHG  1  24  -1
M  END
> <rmsd>
0.707554698

$$$$
ZINC33253452


 29 31  0  0  0  0  0  0  0  0999 V2000
    0.1977    3.2535   -7.5677 C   0  0  0  0  0
   -0.4145    2.3651   -6.6837 C   0  0  0  0  0
    1.5873    3.3742   -7.5846 C   0  0  0  0  0
    0.3629    1.5973   -5.8166 C   0  0  0  0  0
    2.3646    2.6065   -6.7175 C   0  0  0  0  0
   -0.1068    2.5016   -1.5740 C   0  0  0  0  0
    0.8688    2.5246   -2.5705 C   0  0  0  0  0
   -3.5401   -2.5657    0.5391 C   0  0  0  0  0
   -2.9054   -2.3069   -1.7776 C   0  0  0  0  0
   -3.3764   -1.1947    0.7372 C   0  0  0  0  0
   -2.7418   -0.9359   -1.5796 C   0  0  0  0  0
    0.8578    0.4766   -0.6763 C   0  0  0  0  0
    1.8335    0.4996   -1.6729 C   0  0  0  0  0
    1.7524    1.7180   -5.8335 C   0  0  0  0  0
   -0.1123    1.4777   -0.6268 C   0  0  0  0  0
    1.8390    1.5237   -2.6200 C   0  0  0  0  0
   -3.3046   -3.1219   -0.7182 C   0  0  0  0  0
   -2.9773   -0.3799   -0.3222 C   0  0  0  0  0
    2.8485   -0.5703   -1.7024 C   0  0  0  0  0
    4.0659    2.2673   -3.4250 C   0  0  0  0  0
    2.5891    0.8917   -4.8999 C   0  0  0  0  0
   -1.1117    1.4540    0.3926 N   0  0  0  0  0
    2.8178    1.5644   -3.6379 N   0  0  0  0  0
    2.6040   -1.6334   -2.3840 O   0  0  0  0  0
    3.9414   -0.4018   -1.0450 O   0  0  0  0  0
   -3.5974    1.7230    1.0631 O   0  0  0  0  0
   -2.9651    2.0183   -1.3479 O   0  0  0  0  0
   -3.4605   -4.4387   -0.9081 F   0  0  0  0  0
   -2.7682    1.3596   -0.0709 S   0  0  0  0  0
  1  2  1  0  0  0
  3  5  1  0  0  0
  4 14  1  0  0  0
  6 15  1  0  0  0
  7 16  1  0  0  0
  8 17  1  0  0  0
  9 11  1  0  0  0
 10 18  1  0  0  0
 12 13  1  0  0  0
 13 19  1  0  0  0
 15 22  1  0  0  0
 16 23  1  0  0  0
 17 28  1  0  0  0
 19 24  1  0  0  0
 20 23  1  0  0  0
 21 14  1  0  0  0
 21 23  1  0  0  0
 29 18  1  0  0  0
 29 22  1  0  0  0
  1  3  2  0  0  0
  2  4  2  0  0  0
  5 14  2  0  0  0
  6  7  2  0  0  0
  8 10  2  0  0  0
  9 17  2  0  0  0
 11 18  2  0  0  0
 12 15  2  0  0  0
 13 16  2  0  0  0
 19 25  2  0  0  0
 29 26  2  0  0  0
 29 27  2  0  0  0
M  CHG  1  24  -1
M  END
> <rmsd>
0.52629596

$$$$
ZINC32961665


 29 31  0  0  0  0  0  0  0  0999 V2000
    7.8311    2.1918   -7.8113 C   0  0  0  0  0
   -3.3052   -3.1221   -0.7167 C   0  0  0  0  0
   -3.5396   -2.5655    0.5407 C   0  0  0  0  0
   -2.9063   -2.3076   -1.7765 C   0  0  0  0  0
    0.8689    2.5247   -2.5713 C   0  0  0  0  0
   -0.1069    2.5015   -1.5749 C   0  0  0  0  0
   -3.3753   -1.1945    0.7382 C   0  0  0  0  0
   -2.7420   -0.9366   -1.5790 C   0  0  0  0  0
    0.8588    0.4773   -0.6765 C   0  0  0  0  0
    1.8346    0.5005   -1.6729 C   0  0  0  0  0
    1.8396    1.5242   -2.6203 C   0  0  0  0  0
   -0.1119    1.4778   -0.6274 C   0  0  0  0  0
   -2.9765   -0.3800   -0.3216 C   0  0  0  0  0
    2.8496   -0.5695   -1.7021 C   0  0  0  0  0
    4.0679    2.2818   -3.3973 C   0  0  0  0  0
    2.3573    1.5097   -5.0239 C   0  0  0  0  0
    5.1491    1.7940   -4.3648 C   0  0  0  0  0
    3.4936    1.0458   -5.9382 C   0  0  0  0  0
    6.7574    2.5848   -6.8867 C   0  0  0  0  0
    5.7491    1.4607   -6.6732 C   0  0  0  0  0
    8.6794    1.8837   -8.5407 N   0  0  0  0  0
    2.8097    1.5656   -3.6280 N   0  0  0  0  0
    4.6892    1.8782   -5.7563 N   0  0  0  0  0
   -1.1111    1.4543    0.3922 N   0  0  0  0  0
    2.6050   -1.6329   -2.3833 O   0  0  0  0  0
    3.9426   -0.4007   -1.0452 O   0  0  0  0  0
   -3.5967    1.7233    1.0631 O   0  0  0  0  0
   -2.9649    2.0178   -1.3480 O   0  0  0  0  0
   -2.7677    1.3596   -0.0709 S   0  0  0  0  0
  2  3  1  0  0  0
  4  8  1  0  0  0
  5 11  1  0  0  0
  6 12  1  0  0  0
  7 13  1  0  0  0
  9 10  1  0  0  0
 10 14  1  0  0  0
 11 22  1  0  0  0
 12 24  1  0  0  0
 14 25  1  0  0  0
 15 17  1  0  0  0
 15 22  1  0  0  0
 16 18  1  0  0  0
 16 22  1  0  0  0
 17 23  1  0  0  0
 18 23  1  0  0  0
 19  1  1  0  0  0
 19 20  1  0  0  0
 20 23  1  0  0  0
 29 13  1  0  0  0
 29 24  1  0  0  0
  2  4  2  0  0  0
  3  7  2  0  0  0
  5  6  2  0  0  0
  8 13  2  0  0  0
  9 12  2  0  0  0
 10 11  2  0  0  0
 14 26  2  0  0  0
 29 27  2  0  0  0
 29 28  2  0  0  0
  1 21  3  0  0  0
M  CHG  1  25  -1
M  END
> <rmsd>
0.526116908

$$$$
ZINC32961665


 29 31  0  0  0  0  0  0  0  0999 V2000
    8.4442    3.1866   -6.7564 C   0  0  0  0  0
   -2.8514   -3.1012   -0.8013 C   0  0  0  0  0
   -3.2445   -2.5879    0.4347 C   0  0  0  0  0
   -2.4209   -2.2388   -1.8096 C   0  0  0  0  0
    1.0209    2.8841   -2.1909 C   0  0  0  0  0
   -0.0384    2.7672   -1.2910 C   0  0  0  0  0
   -3.2073   -1.2122    0.6623 C   0  0  0  0  0
   -2.3838   -0.8631   -1.5820 C   0  0  0  0  0
    0.9955    0.8070   -0.3288 C   0  0  0  0  0
    2.0548    0.9239   -1.2287 C   0  0  0  0  0
    2.0674    1.9625   -2.1598 C   0  0  0  0  0
   -0.0511    1.7286   -0.3599 C   0  0  0  0  0
   -2.7770   -0.3498   -0.3460 C   0  0  0  0  0
    3.1489   -0.0639   -1.1745 C   0  0  0  0  0
    4.2919    2.9039   -2.7151 C   0  0  0  0  0
    2.8057    2.0327   -4.5040 C   0  0  0  0  0
    5.4933    2.5190   -3.5821 C   0  0  0  0  0
    4.0548    1.6749   -5.3126 C   0  0  0  0  0
    7.2617    3.4783   -5.9325 C   0  0  0  0  0
    6.3294    2.2761   -5.8275 C   0  0  0  0  0
    9.3781    2.9584   -7.4062 N   0  0  0  0  0
    3.1207    2.0973   -3.0713 N   0  0  0  0  0
    5.1593    2.5935   -5.0096 N   0  0  0  0  0
   -1.1357    1.6092    0.5609 N   0  0  0  0  0
    3.0528   -1.1301   -1.8876 O   0  0  0  0  0
    4.1595    0.1764   -0.4158 O   0  0  0  0  0
   -3.6863    1.6733    0.9981 O   0  0  0  0  0
   -2.8584    2.0605   -1.3394 O   0  0  0  0  0
   -2.7295    1.3957   -0.0570 S   0  0  0  0  0
  2  3  1  0  0  0
  4  8  1  0  0  0
  5 11  1  0  0  0
  6 12  1  0  0  0
  7 13  1  0  0  0
  9 10  1  0  0  0
 10 14  1  0  0  0
 11 22  1  0  0  0
 12 24  1  0  0  0
 14 25  1  0  0  0
 15 17  1  0  0  0
 15 22  1  0  0  0
 16 18  1  0  0  0
 16 22  1  0  0  0
 17 23  1  0  0  0
 18 23  1  0  0  0
 19  1  1  0  0  0
 19 20  1  0  0  0
 20 23  1  0  0  0
 29 13  1  0  0  0
 29 24  1  0  0  0
  2  4  2  0  0  0
  3  7  2  0  0  0
  5  6  2  0  0  0
  8 13  2  0  0  0
  9 12  2  0  0  0
 10 11  2  0  0  0
 14 26  2  0  0  0
 29 27  2  0  0  0
 29 28  2  0  0  0
  1 21  3  0  0  0
M  CHG  1  25  -1
M  END
> <rmsd>
0.706963956

$$$$
ZINC08695386


 29 31  0  0  0  0  0  0  0  0999 V2000
    5.8129    0.5669   -2.5996 C   0  0  0  0  0
    4.7431   -0.7390   -4.3279 C   0  0  0  0  0
   -3.3605   -2.5910    0.3927 C   0  0  0  0  0
   -3.0825   -2.1429   -1.9650 C   0  0  0  0  0
    7.0142    0.5186   -3.3067 C   0  0  0  0  0
    5.9443   -0.7873   -5.0350 C   0  0  0  0  0
   -3.2263   -1.2301    0.6672 C   0  0  0  0  0
   -2.9484   -0.7819   -1.6905 C   0  0  0  0  0
    4.6773   -0.0620   -3.1101 C   0  0  0  0  0
   -3.2885   -3.0475   -0.9235 C   0  0  0  0  0
    7.0800   -0.1584   -4.5244 C   0  0  0  0  0
   -3.0203   -0.3256   -0.3743 C   0  0  0  0  0
    1.3615    1.3811   -2.1455 C   0  0  0  0  0
    0.2876    2.0988   -2.8989 C   0  0  0  0  0
   -0.3865    1.6352   -0.9666 C   0  0  0  0  0
    2.6747    1.0738   -2.7265 C   0  0  0  0  0
    3.4255   -0.0126   -2.3716 C   0  0  0  0  0
    0.8988    1.1199   -0.9693 N   0  0  0  0  0
   -0.7932    2.2138   -2.0589 N   0  0  0  0  0
   -3.4243   -4.4236   -1.2015 N   0  0  0  0  0
   -1.1763    1.5121    0.1919 N   0  0  0  0  0
    8.3029   -0.2082   -5.2448 N   0  0  0  0  0
    3.1314   -0.9166   -1.5060 O   0  0  0  0  0
    9.3129    0.3635   -4.7681 O   0  0  0  0  0
    0.4221    2.4809   -4.0449 O   0  0  0  0  0
    8.3399   -0.8231   -6.3379 O   0  0  0  0  0
   -3.5261    1.6564    1.2312 O   0  0  0  0  0
   -3.2360    2.1230   -1.2239 O   0  0  0  0  0
   -2.8503    1.4003   -0.0267 S   0  0  0  0  0
  1  5  1  0  0  0
  2  9  1  0  0  0
  3 10  1  0  0  0
  4  8  1  0  0  0
  6 11  1  0  0  0
  7 12  1  0  0  0
  9 17  1  0  0  0
 10 20  1  0  0  0
 11 22  1  0  0  0
 13 14  1  0  0  0
 13 16  1  0  0  0
 14 19  1  0  0  0
 15 18  1  0  0  0
 15 21  1  0  0  0
 17 23  1  0  0  0
 22 24  1  0  0  0
 29 12  1  0  0  0
 29 21  1  0  0  0
  1  9  2  0  0  0
  2  6  2  0  0  0
  3  7  2  0  0  0
  4 10  2  0  0  0
  5 11  2  0  0  0
  8 12  2  0  0  0
 13 18  2  0  0  0
 14 25  2  0  0  0
 15 19  2  0  0  0
 16 17  2  0  0  0
 22 26  2  0  0  0
 29 27  2  0  0  0
 29 28  2  0  0  0
M  CHG  3  22   1  23  -1  24  -1
M  END
> <rmsd>
0.608726382

$$$$
ZINC35397465


 26 28  0  0  0  0  0  0  0  0999 V2000
   -3.2315   -1.2072    0.6745 C   0  0  0  0  0
   -3.2822   -2.5837    0.4546 C   0  0  0  0  0
    1.0049    0.7855   -0.3095 C   0  0  0  0  0
   -2.3894   -0.8802   -1.5662 C   0  0  0  0  0
    0.0111    2.7192   -1.2737 C   0  0  0  0  0
    2.0570    0.9148   -1.2092 C   0  0  0  0  0
   -0.0415    1.7008   -0.3358 C   0  0  0  0  0
   -2.7851   -0.3554   -0.3359 C   0  0  0  0  0
   -2.8865   -3.1084   -0.7757 C   0  0  0  0  0
   -2.4401   -2.2566   -1.7861 C   0  0  0  0  0
    2.0156    1.9684   -2.1082 C   0  0  0  0  0
    3.1643   -0.0560   -1.1794 C   0  0  0  0  0
    4.5711    1.6723   -4.8090 C   0  0  0  0  0
    4.9697    2.9772   -4.1498 C   0  0  0  0  0
    3.1265    1.4939   -4.3560 C   0  0  0  0  0
    4.3005    2.8820   -2.7834 C   0  0  0  0  0
    1.0163    2.8772   -2.1637 N   0  0  0  0  0
    3.0776    2.1057   -3.0223 N   0  0  0  0  0
   -1.1338    1.5944    0.5733 N   0  0  0  0  0
    3.0775   -1.1158   -1.9050 O   0  0  0  0  0
    4.1810    0.1880   -0.4284 O   0  0  0  0  0
   -3.6900    1.6838    0.9864 O   0  0  0  0  0
   -2.8361    2.0491   -1.3452 O   0  0  0  0  0
   -2.7254    1.3914   -0.0574 S   0  0  0  0  0
   -2.9710   -4.8223   -0.9862 Cl  0  0  0  0  0
   -1.9371   -2.8465   -3.3315 Cl  0  0  0  0  0
  1  2  1  0  0  0
  3  7  1  0  0  0
  4  8  1  0  0  0
  5 17  1  0  0  0
  6 11  1  0  0  0
  6 12  1  0  0  0
  7 19  1  0  0  0
  9 10  1  0  0  0
  9 25  1  0  0  0
 10 26  1  0  0  0
 11 18  1  0  0  0
 12 20  1  0  0  0
 13 14  1  0  0  0
 13 15  1  0  0  0
 14 16  1  0  0  0
 15 18  1  0  0  0
 16 18  1  0  0  0
 24  8  1  0  0  0
 24 19  1  0  0  0
  1  8  2  0  0  0
  2  9  2  0  0  0
  3  6  2  0  0  0
  4 10  2  0  0  0
  5  7  2  0  0  0
 11 17  2  0  0  0
 12 21  2  0  0  0
 24 22  2  0  0  0
 24 23  2  0  0  0
M  CHG  1  20  -1
M  END
> <rmsd>
0.687258422

$$$$
ZINC35397465


 26 28  0  0  0  0  0  0  0  0999 V2000
   -3.3961   -1.1884    0.7503 C   0  0  0  0  0
   -3.5725   -2.5590    0.5607 C   0  0  0  0  0
    0.8687    0.4578   -0.6596 C   0  0  0  0  0
   -2.7464   -0.9518   -1.5647 C   0  0  0  0  0
   -0.0606    2.4527   -1.5614 C   0  0  0  0  0
    1.8382    0.4952   -1.6556 C   0  0  0  0  0
   -0.1024    1.4514   -0.6047 C   0  0  0  0  0
   -2.9830   -0.3848   -0.3124 C   0  0  0  0  0
   -3.3359   -3.1260   -0.6916 C   0  0  0  0  0
   -2.9228   -2.3223   -1.7543 C   0  0  0  0  0
    1.7929    1.5392   -2.5655 C   0  0  0  0  0
    2.8657   -0.5585   -1.7117 C   0  0  0  0  0
    4.0522    1.0164   -5.4869 C   0  0  0  0  0
    4.6099    2.2932   -4.8912 C   0  0  0  0  0
    2.6474    0.9558   -4.8982 C   0  0  0  0  0
    4.0672    2.2649   -3.4669 C   0  0  0  0  0
    0.8653    2.5225   -2.5439 N   0  0  0  0  0
    2.7714    1.5837   -3.5769 N   0  0  0  0  0
   -1.1090    1.4401    0.4040 N   0  0  0  0  0
    2.6301   -1.6160   -2.4071 O   0  0  0  0  0
    3.9643   -0.3865   -1.0632 O   0  0  0  0  0
   -3.6005    1.7327    1.0518 O   0  0  0  0  0
   -2.9448    2.0056   -1.3554 O   0  0  0  0  0
   -2.7639    1.3550   -0.0720 S   0  0  0  0  0
   -3.5707   -4.8302   -0.8626 Cl  0  0  0  0  0
   -2.6144   -2.9659   -3.3290 Cl  0  0  0  0  0
  1  2  1  0  0  0
  3  7  1  0  0  0
  4  8  1  0  0  0
  5 17  1  0  0  0
  6 11  1  0  0  0
  6 12  1  0  0  0
  7 19  1  0  0  0
  9 10  1  0  0  0
  9 25  1  0  0  0
 10 26  1  0  0  0
 11 18  1  0  0  0
 12 20  1  0  0  0
 13 14  1  0  0  0
 13 15  1  0  0  0
 14 16  1  0  0  0
 15 18  1  0  0  0
 16 18  1  0  0  0
 24  8  1  0  0  0
 24 19  1  0  0  0
  1  8  2  0  0  0
  2  9  2  0  0  0
  3  6  2  0  0  0
  4 10  2  0  0  0
  5  7  2  0  0  0
 11 17  2  0  0  0
 12 21  2  0  0  0
 24 22  2  0  0  0
 24 23  2  0  0  0
M  CHG  1  20  -1
M  END
> <rmsd>
0.508640528

$$$$
ZINC16924901


 29 31  0  0  0  0  0  0  0  0999 V2000
   -3.3335   -1.0956    0.5307 C   0  0  0  0  0
   -4.1270   -1.5561   -1.7045 C   0  0  0  0  0
    0.3873   -0.3023    1.6172 C   0  0  0  0  0
   -3.5137   -2.4363    0.8708 C   0  0  0  0  0
   -4.3072   -2.8968   -1.3643 C   0  0  0  0  0
    1.3124   -1.3453    1.6626 C   0  0  0  0  0
    1.2860    0.4022   -0.5118 C   0  0  0  0  0
    2.2111   -0.6407   -0.4665 C   0  0  0  0  0
   -3.6403   -0.6555   -0.7570 C   0  0  0  0  0
    0.3742    0.5715    0.5300 C   0  0  0  0  0
   -4.0005   -3.3369   -0.0766 C   0  0  0  0  0
    2.2243   -1.5144    0.6208 C   0  0  0  0  0
   -3.5772    1.7485   -0.1583 C   0  0  0  0  0
   -3.1580    1.1156   -2.4095 C   0  0  0  0  0
    3.1667   -0.8061   -1.5761 C   0  0  0  0  0
   -0.7176    2.5856   -0.5157 C   0  0  0  0  0
   -3.1894    3.0939   -0.7261 C   0  0  0  0  0
   -3.8430   -5.0267    1.5894 C   0  0  0  0  0
   -1.8482    3.5431   -0.1699 C   0  0  0  0  0
   -3.4538    0.7277   -1.1081 N   0  0  0  0  0
   -0.5647    1.6294    0.4843 N   0  0  0  0  0
    3.1201    0.0219   -2.5602 O   0  0  0  0  0
   -3.9674    1.6519    1.0030 O   0  0  0  0  0
   -2.9117    0.4298   -3.3906 O   0  0  0  0  0
    4.0144   -1.7731   -1.5229 O   0  0  0  0  0
   -0.0670    2.6935   -1.5498 O   0  0  0  0  0
    3.1205   -2.5394    0.6830 O   0  0  0  0  0
   -4.1763   -4.6449    0.2555 O   0  0  0  0  0
   -3.0987    2.8665   -2.5114 S   0  0  0  0  0
  1  9  1  0  0  0
  2  5  1  0  0  0
  3 10  1  0  0  0
  4 11  1  0  0  0
  6 12  1  0  0  0
  7  8  1  0  0  0
  8 15  1  0  0  0
  9 20  1  0  0  0
 10 21  1  0  0  0
 11 28  1  0  0  0
 12 27  1  0  0  0
 13 20  1  0  0  0
 14 20  1  0  0  0
 14 29  1  0  0  0
 15 22  1  0  0  0
 16 21  1  0  0  0
 17 13  1  0  0  0
 17 19  1  0  0  0
 17 29  1  0  0  0
 18 28  1  0  0  0
 19 16  1  0  0  0
  1  4  2  0  0  0
  2  9  2  0  0  0
  3  6  2  0  0  0
  5 11  2  0  0  0
  7 10  2  0  0  0
  8 12  2  0  0  0
 13 23  2  0  0  0
 14 24  2  0  0  0
 15 25  2  0  0  0
 16 26  2  0  0  0
M  CHG  1  22  -1
M  END
> <rmsd>
0.330136895

$$$$
ZINC16925513


 29 31  0  0  0  0  0  0  0  0999 V2000
   -3.3958   -2.4437    0.7169 C   0  0  0  0  0
   -4.2911   -2.8050   -1.4978 C   0  0  0  0  0
   -3.3050   -1.0763    0.4571 C   0  0  0  0  0
   -4.2004   -1.4375   -1.7575 C   0  0  0  0  0
    2.2744   -1.1739    0.1949 C   0  0  0  0  0
    1.4231   -1.1348    1.2992 C   0  0  0  0  0
    1.1554    0.7543   -0.7361 C   0  0  0  0  0
   -3.8889   -3.3081   -0.2606 C   0  0  0  0  0
   -3.7073   -0.5732   -0.7801 C   0  0  0  0  0
    0.3042    0.7935    0.3681 C   0  0  0  0  0
    2.1406   -0.2293   -0.8227 C   0  0  0  0  0
    0.4380   -0.1512    1.3858 C   0  0  0  0  0
   -3.7365    1.7880   -0.0280 C   0  0  0  0  0
   -3.4139    1.3229   -2.3353 C   0  0  0  0  0
   -0.9498    2.8051   -0.4820 C   0  0  0  0  0
   -3.4529    3.1862   -0.5256 C   0  0  0  0  0
   -2.7145   -5.5204   -0.3744 C   0  0  0  0  0
   -3.9852   -4.7701    0.0165 C   0  0  0  0  0
   -2.1076    3.6740   -0.0136 C   0  0  0  0  0
   -3.6141    0.8377   -1.0485 N   0  0  0  0  0
   -0.6901    1.7979    0.4429 N   0  0  0  0  0
    3.0083   -0.2690   -1.9461 N   0  0  0  0  0
    3.8881   -1.1617   -2.0035 O   0  0  0  0  0
   -4.0541    1.5966    1.1436 O   0  0  0  0  0
   -3.1883    0.7153   -3.3714 O   0  0  0  0  0
   -0.3660    3.0144   -1.5402 O   0  0  0  0  0
    2.8711    0.5895   -2.8509 O   0  0  0  0  0
   -0.3836   -0.1303    2.4731 O   0  0  0  0  0
   -3.4526    3.0773   -2.3243 S   0  0  0  0  0
  1  8  1  0  0  0
  2  4  1  0  0  0
  3  9  1  0  0  0
  5 11  1  0  0  0
  6 12  1  0  0  0
  7 10  1  0  0  0
  9 20  1  0  0  0
 10 21  1  0  0  0
 11 22  1  0  0  0
 12 28  1  0  0  0
 13 20  1  0  0  0
 14 20  1  0  0  0
 14 29  1  0  0  0
 15 21  1  0  0  0
 16 13  1  0  0  0
 16 19  1  0  0  0
 16 29  1  0  0  0
 17 18  1  0  0  0
 18  8  1  0  0  0
 19 15  1  0  0  0
 22 23  1  0  0  0
  1  3  2  0  0  0
  2  8  2  0  0  0
  4  9  2  0  0  0
  5  6  2  0  0  0
  7 11  2  0  0  0
 10 12  2  0  0  0
 13 24  2  0  0  0
 14 25  2  0  0  0
 15 26  2  0  0  0
 22 27  2  0  0  0
M  CHG  2  22   1  23  -1
M  END
> <rmsd>
0.400585651

$$$$
ZINC16924111


 29 31  0  0  0  0  0  0  0  0999 V2000
   -3.8565   -3.3114   -0.2704 C   0  0  0  0  0
   -4.9402   -2.4877    0.0336 C   0  0  0  0  0
    2.2693   -1.1774    0.1946 C   0  0  0  0  0
    1.4183   -1.1375    1.2991 C   0  0  0  0  0
   -2.6284   -1.3959   -1.0826 C   0  0  0  0  0
    1.1516    0.7515   -0.7364 C   0  0  0  0  0
   -2.7005   -2.7655   -0.8285 C   0  0  0  0  0
   -4.8681   -1.1180   -0.2205 C   0  0  0  0  0
   -3.7122   -0.5721   -0.7786 C   0  0  0  0  0
    0.3007    0.7916    0.3681 C   0  0  0  0  0
    2.1360   -0.2329   -0.8231 C   0  0  0  0  0
    0.4340   -0.1530    1.3859 C   0  0  0  0  0
   -3.7393    1.7893   -0.0269 C   0  0  0  0  0
   -3.4178    1.3235   -2.3343 C   0  0  0  0  0
   -0.9520    2.8040   -0.4820 C   0  0  0  0  0
   -3.4548    3.1871   -0.5249 C   0  0  0  0  0
   -1.5422   -3.6470   -1.1544 C   0  0  0  0  0
   -6.0452   -0.2600    0.1139 C   0  0  0  0  0
   -2.1089    3.6739   -0.0133 C   0  0  0  0  0
   -3.6180    0.8386   -1.0473 N   0  0  0  0  0
   -0.6927    1.7967    0.4430 N   0  0  0  0  0
    3.0033   -0.2735   -1.9468 N   0  0  0  0  0
    3.8824   -1.1669   -2.0043 O   0  0  0  0  0
   -4.0567    1.5983    1.1448 O   0  0  0  0  0
   -3.1930    0.7155   -3.3704 O   0  0  0  0  0
   -0.3683    3.0126   -1.5404 O   0  0  0  0  0
    2.8665    0.5850   -2.8517 O   0  0  0  0  0
   -0.3872   -0.1313    2.4734 O   0  0  0  0  0
   -3.4551    3.0779   -2.3236 S   0  0  0  0  0
  1  7  1  0  0  0
  2  8  1  0  0  0
  3 11  1  0  0  0
  4 12  1  0  0  0
  5  9  1  0  0  0
  6 10  1  0  0  0
  9 20  1  0  0  0
 10 21  1  0  0  0
 11 22  1  0  0  0
 12 28  1  0  0  0
 13 20  1  0  0  0
 14 20  1  0  0  0
 14 29  1  0  0  0
 15 21  1  0  0  0
 16 13  1  0  0  0
 16 19  1  0  0  0
 16 29  1  0  0  0
 17  7  1  0  0  0
 18  8  1  0  0  0
 19 15  1  0  0  0
 22 23  1  0  0  0
  1  2  2  0  0  0
  3  4  2  0  0  0
  5  7  2  0  0  0
  6 11  2  0  0  0
  8  9  2  0  0  0
 10 12  2  0  0  0
 13 24  2  0  0  0
 14 25  2  0  0  0
 15 26  2  0  0  0
 22 27  2  0  0  0
M  CHG  2  22   1  23  -1
M  END
> <rmsd>
0.401083857

$$$$
ZINC16923948


 29 31  0  0  0  0  0  0  0  0999 V2000
   -4.2909   -2.8051   -1.4984 C   0  0  0  0  0
   -4.2007   -1.4376   -1.7580 C   0  0  0  0  0
    2.2738   -1.1747    0.1945 C   0  0  0  0  0
    1.4225   -1.1357    1.2988 C   0  0  0  0  0
   -3.3053   -1.0765    0.4567 C   0  0  0  0  0
    1.1550    0.7536   -0.7363 C   0  0  0  0  0
   -3.8885   -3.3083   -0.2612 C   0  0  0  0  0
   -3.3956   -2.4439    0.7163 C   0  0  0  0  0
   -3.7078   -0.5733   -0.7804 C   0  0  0  0  0
    0.3038    0.7928    0.3679 C   0  0  0  0  0
    2.1401   -0.2301   -0.8230 C   0  0  0  0  0
    0.4375   -0.1519    1.3855 C   0  0  0  0  0
   -3.7367    1.7879   -0.0281 C   0  0  0  0  0
   -3.4142    1.3229   -2.3355 C   0  0  0  0  0
   -0.9500    2.8047   -0.4820 C   0  0  0  0  0
   -3.4530    3.1860   -0.5256 C   0  0  0  0  0
   -3.9948   -4.7760   -0.0065 C   0  0  0  0  0
   -2.9591   -2.9598    2.0481 C   0  0  0  0  0
   -2.1076    3.6736   -0.0135 C   0  0  0  0  0
   -3.6145    0.8376   -1.0487 N   0  0  0  0  0
   -0.6904    1.7973    0.4428 N   0  0  0  0  0
    3.0078   -0.2697   -1.9464 N   0  0  0  0  0
    3.8876   -1.1625   -2.0039 O   0  0  0  0  0
   -4.0544    1.5963    1.1435 O   0  0  0  0  0
   -3.1887    0.7154   -3.3717 O   0  0  0  0  0
   -0.3661    3.0140   -1.5402 O   0  0  0  0  0
    2.8707    0.5889   -2.8511 O   0  0  0  0  0
   -0.3841   -0.1311    2.4728 O   0  0  0  0  0
   -3.4527    3.0773   -2.3244 S   0  0  0  0  0
  1  7  1  0  0  0
  2  9  1  0  0  0
  3 11  1  0  0  0
  4 12  1  0  0  0
  5  8  1  0  0  0
  6 10  1  0  0  0
  9 20  1  0  0  0
 10 21  1  0  0  0
 11 22  1  0  0  0
 12 28  1  0  0  0
 13 20  1  0  0  0
 14 20  1  0  0  0
 14 29  1  0  0  0
 15 21  1  0  0  0
 16 13  1  0  0  0
 16 19  1  0  0  0
 16 29  1  0  0  0
 17  7  1  0  0  0
 18  8  1  0  0  0
 19 15  1  0  0  0
 22 23  1  0  0  0
  1  2  2  0  0  0
  3  4  2  0  0  0
  5  9  2  0  0  0
  6 11  2  0  0  0
  7  8  2  0  0  0
 10 12  2  0  0  0
 13 24  2  0  0  0
 14 25  2  0  0  0
 15 26  2  0  0  0
 22 27  2  0  0  0
M  CHG  2  22   1  23  -1
M  END
> <rmsd>
0.401000321

$$$$
ZINC16923948


 29 31  0  0  0  0  0  0  0  0999 V2000
   -3.3955   -2.4434    0.7172 C   0  0  0  0  0
   -3.3051   -1.0761    0.4567 C   0  0  0  0  0
    2.2741   -1.1749    0.1943 C   0  0  0  0  0
    1.4227   -1.1359    1.2986 C   0  0  0  0  0
   -4.2004   -1.4388   -1.7577 C   0  0  0  0  0
    1.1552    0.7534   -0.7365 C   0  0  0  0  0
   -3.8884   -3.3085   -0.2598 C   0  0  0  0  0
   -4.2909   -2.8061   -1.4972 C   0  0  0  0  0
   -3.7076   -0.5738   -0.7807 C   0  0  0  0  0
    0.3040    0.7925    0.3677 C   0  0  0  0  0
    2.1404   -0.2303   -0.8232 C   0  0  0  0  0
    0.4377   -0.1522    1.3852 C   0  0  0  0  0
   -3.7366    1.7874   -0.0284 C   0  0  0  0  0
   -3.4140    1.3224   -2.3358 C   0  0  0  0  0
   -0.9499    2.8043   -0.4823 C   0  0  0  0  0
   -3.4530    3.1855   -0.5259 C   0  0  0  0  0
   -3.9757   -4.7684    0.0422 C   0  0  0  0  0
   -4.8214   -3.7130   -2.5586 C   0  0  0  0  0
   -2.1076    3.6732   -0.0138 C   0  0  0  0  0
   -3.6143    0.8371   -1.0490 N   0  0  0  0  0
   -0.6902    1.7970    0.4425 N   0  0  0  0  0
    3.0081   -0.2699   -1.9466 N   0  0  0  0  0
    3.8879   -1.1626   -2.0041 O   0  0  0  0  0
   -4.0542    1.5958    1.1432 O   0  0  0  0  0
   -3.1884    0.7149   -3.3720 O   0  0  0  0  0
   -0.3660    3.0136   -1.5404 O   0  0  0  0  0
    2.8710    0.5887   -2.8513 O   0  0  0  0  0
   -0.3839   -0.1314    2.4725 O   0  0  0  0  0
   -3.4526    3.0768   -2.3246 S   0  0  0  0  0
  1  7  1  0  0  0
  2  9  1  0  0  0
  3 11  1  0  0  0
  4 12  1  0  0  0
  5  8  1  0  0  0
  6 10  1  0  0  0
  9 20  1  0  0  0
 10 21  1  0  0  0
 11 22  1  0  0  0
 12 28  1  0  0  0
 13 20  1  0  0  0
 14 20  1  0  0  0
 14 29  1  0  0  0
 15 21  1  0  0  0
 16 13  1  0  0  0
 16 19  1  0  0  0
 16 29  1  0  0  0
 17  7  1  0  0  0
 18  8  1  0  0  0
 19 15  1  0  0  0
 22 23  1  0  0  0
  1  2  2  0  0  0
  3  4  2  0  0  0
  5  9  2  0  0  0
  6 11  2  0  0  0
  7  8  2  0  0  0
 10 12  2  0  0  0
 13 24  2  0  0  0
 14 25  2  0  0  0
 15 26  2  0  0  0
 22 27  2  0  0  0
M  CHG  2  22   1  23  -1
M  END
> <rmsd>
0.400651515

$$$$
ZINC32962217


 29 32  0  0  0  0  0  0  0  0999 V2000
   -3.2322   -2.5863    0.4265 C   0  0  0  0  0
    0.9790    2.8466   -2.2572 C   0  0  0  0  0
   -0.0692    2.7412   -1.3431 C   0  0  0  0  0
   -3.2025   -1.2111    0.6560 C   0  0  0  0  0
    0.9942    0.8145   -0.3459 C   0  0  0  0  0
   -2.3876   -0.8579   -1.5872 C   0  0  0  0  0
    2.0424    0.9200   -1.2601 C   0  0  0  0  0
   -2.8321   -3.1133   -0.8107 C   0  0  0  0  0
   -2.4228   -2.2386   -1.8344 C   0  0  0  0  0
    2.0349    1.9360   -2.2157 C   0  0  0  0  0
   -0.0616    1.7251   -0.3874 C   0  0  0  0  0
   -2.7781   -0.3475   -0.3495 C   0  0  0  0  0
    3.1466   -0.0559   -1.1945 C   0  0  0  0  0
   -2.9103   -4.6034   -1.0316 C   0  0  0  0  0
   -1.9611   -2.7546   -3.1744 C   0  0  0  0  0
   -2.1093   -5.0765   -2.2431 C   0  0  0  0  0
   -2.3971   -4.1924   -3.4498 C   0  0  0  0  0
    4.2293    2.8953   -2.7810 C   0  0  0  0  0
    2.7921    1.9724   -4.5780 C   0  0  0  0  0
    5.4317    2.5102   -3.6354 C   0  0  0  0  0
    4.0714    1.6370   -5.3367 C   0  0  0  0  0
    3.0762    2.0589   -3.1413 N   0  0  0  0  0
   -1.1427    1.6168    0.5547 N   0  0  0  0  0
    3.0532   -1.1397   -1.8810 O   0  0  0  0  0
    4.1630    0.2121   -0.4530 O   0  0  0  0  0
   -3.6820    1.6700    1.0064 O   0  0  0  0  0
   -2.8737    2.0649   -1.3367 O   0  0  0  0  0
    5.0998    2.5751   -5.0222 O   0  0  0  0  0
   -2.7335    1.3736   -0.0609 S   0  0  0  0  0
  1  8  1  0  0  0
  2  3  1  0  0  0
  4 12  1  0  0  0
  5 11  1  0  0  0
  6  9  1  0  0  0
  7 10  1  0  0  0
  7 13  1  0  0  0
 10 22  1  0  0  0
 11 23  1  0  0  0
 13 24  1  0  0  0
 14  8  1  0  0  0
 14 16  1  0  0  0
 15  9  1  0  0  0
 15 17  1  0  0  0
 16 17  1  0  0  0
 18 20  1  0  0  0
 18 22  1  0  0  0
 19 21  1  0  0  0
 19 22  1  0  0  0
 20 28  1  0  0  0
 21 28  1  0  0  0
 29 12  1  0  0  0
 29 23  1  0  0  0
  1  4  2  0  0  0
  2 10  2  0  0  0
  3 11  2  0  0  0
  5  7  2  0  0  0
  6 12  2  0  0  0
  8  9  2  0  0  0
 13 25  2  0  0  0
 29 26  2  0  0  0
 29 27  2  0  0  0
M  CHG  1  24  -1
M  END
> <rmsd>
0.713665366

$$$$
ZINC32962217


 29 32  0  0  0  0  0  0  0  0999 V2000
   -3.5357   -2.5636    0.5370 C   0  0  0  0  0
    0.8292    2.4758   -2.6263 C   0  0  0  0  0
   -0.1361    2.4674   -1.6196 C   0  0  0  0  0
   -3.3764   -1.1923    0.7345 C   0  0  0  0  0
    0.8582    0.4746   -0.6828 C   0  0  0  0  0
   -2.7446   -0.9359   -1.5797 C   0  0  0  0  0
    1.8235    0.4830   -1.6896 C   0  0  0  0  0
   -3.2933   -3.1375   -0.7202 C   0  0  0  0  0
   -2.9113   -2.3124   -1.7943 C   0  0  0  0  0
    1.8091    1.4835   -2.6614 C   0  0  0  0  0
   -0.1216    1.4668   -0.6478 C   0  0  0  0  0
   -2.9787   -0.3792   -0.3228 C   0  0  0  0  0
    2.8484   -0.5778   -1.7037 C   0  0  0  0  0
   -3.5091   -4.6193   -0.9025 C   0  0  0  0  0
   -2.6164   -2.8818   -3.1596 C   0  0  0  0  0
   -2.8621   -5.1715   -2.1712 C   0  0  0  0  0
   -3.1882   -4.2832   -3.3650 C   0  0  0  0  0
    4.0116    2.2551   -3.4416 C   0  0  0  0  0
    2.3477    1.4274   -5.0825 C   0  0  0  0  0
    5.0967    1.7629   -4.3927 C   0  0  0  0  0
    3.5217    0.9798   -5.9463 C   0  0  0  0  0
    2.7679    1.5097   -3.6793 N   0  0  0  0  0
   -1.1172    1.4586    0.3900 N   0  0  0  0  0
    2.6071   -1.6596   -2.3565 O   0  0  0  0  0
    3.9463   -0.3829   -1.0624 O   0  0  0  0  0
   -3.5924    1.7225    1.0673 O   0  0  0  0  0
   -2.9729    2.0196   -1.3467 O   0  0  0  0  0
    4.6456    1.8360   -5.7450 O   0  0  0  0  0
   -2.7719    1.3364   -0.0747 S   0  0  0  0  0
  1  8  1  0  0  0
  2  3  1  0  0  0
  4 12  1  0  0  0
  5 11  1  0  0  0
  6  9  1  0  0  0
  7 10  1  0  0  0
  7 13  1  0  0  0
 10 22  1  0  0  0
 11 23  1  0  0  0
 13 24  1  0  0  0
 14  8  1  0  0  0
 14 16  1  0  0  0
 15  9  1  0  0  0
 15 17  1  0  0  0
 16 17  1  0  0  0
 18 20  1  0  0  0
 18 22  1  0  0  0
 19 21  1  0  0  0
 19 22  1  0  0  0
 20 28  1  0  0  0
 21 28  1  0  0  0
 29 12  1  0  0  0
 29 23  1  0  0  0
  1  4  2  0  0  0
  2 10  2  0  0  0
  3 11  2  0  0  0
  5  7  2  0  0  0
  6 12  2  0  0  0
  8  9  2  0  0  0
 13 25  2  0  0  0
 29 26  2  0  0  0
 29 27  2  0  0  0
M  CHG  1  24  -1
M  END
> <rmsd>
0.529561579

$$$$
ZINC32962180


 29 31  0  0  0  0  0  0  0  0999 V2000
   -2.9407   -2.1986   -1.8862 C   0  0  0  0  0
    1.0092    2.8741   -2.2075 C   0  0  0  0  0
   -0.0473    2.7605   -1.3040 C   0  0  0  0  0
   -2.9040   -0.8263   -1.6388 C   0  0  0  0  0
    0.9936    0.8090   -0.3319 C   0  0  0  0  0
   -2.7222   -2.6311    0.4807 C   0  0  0  0  0
    2.0502    0.9225   -1.2354 C   0  0  0  0  0
   -2.8498   -3.1010   -0.8263 C   0  0  0  0  0
   -2.6854   -1.2588    0.7282 C   0  0  0  0  0
    2.0580    1.9551   -2.1733 C   0  0  0  0  0
   -0.0552    1.7280   -0.3662 C   0  0  0  0  0
   -2.7763   -0.3564   -0.3317 C   0  0  0  0  0
    3.1467   -0.0623   -1.1778 C   0  0  0  0  0
    2.7969    4.5102   -5.2326 C   0  0  0  0  0
    4.0732    4.8323   -4.4525 C   0  0  0  0  0
    2.8658    3.2361   -6.0772 C   0  0  0  0  0
    4.0702    4.3829   -2.9915 C   0  0  0  0  0
    2.2549    1.9946   -5.4273 C   0  0  0  0  0
    4.2988    2.8874   -2.7849 C   0  0  0  0  0
    3.1247    1.3451   -4.3534 C   0  0  0  0  0
   -2.8888   -4.5684   -1.0915 C   0  0  0  0  0
   -2.5479   -0.7886    2.1392 C   0  0  0  0  0
    3.1080    2.0864   -3.0881 N   0  0  0  0  0
   -1.1370    1.6121    0.5582 N   0  0  0  0  0
    3.0512   -1.1334   -1.8838 O   0  0  0  0  0
    4.1588    0.1851   -0.4234 O   0  0  0  0  0
   -3.6866    1.6731    1.0017 O   0  0  0  0  0
   -2.8658    2.0472   -1.3404 O   0  0  0  0  0
   -2.7320    1.3909   -0.0540 S   0  0  0  0  0
  1  8  1  0  0  0
  2 10  1  0  0  0
  3 11  1  0  0  0
  4 12  1  0  0  0
  5  7  1  0  0  0
  6  9  1  0  0  0
  7 13  1  0  0  0
 10 23  1  0  0  0
 11 24  1  0  0  0
 13 25  1  0  0  0
 14 15  1  0  0  0
 14 16  1  0  0  0
 15 17  1  0  0  0
 16 18  1  0  0  0
 17 19  1  0  0  0
 18 20  1  0  0  0
 19 23  1  0  0  0
 20 23  1  0  0  0
 21  8  1  0  0  0
 22  9  1  0  0  0
 29 12  1  0  0  0
 29 24  1  0  0  0
  1  4  2  0  0  0
  2  3  2  0  0  0
  5 11  2  0  0  0
  6  8  2  0  0  0
  7 10  2  0  0  0
  9 12  2  0  0  0
 13 26  2  0  0  0
 29 27  2  0  0  0
 29 28  2  0  0  0
M  CHG  1  25  -1
M  END
> <rmsd>
0.709927619

$$$$
ZINC32962180


 29 31  0  0  0  0  0  0  0  0999 V2000
   -3.4270   -2.2287   -1.8037 C   0  0  0  0  0
    0.8575    2.5115   -2.5852 C   0  0  0  0  0
   -0.1156    2.4926   -1.5861 C   0  0  0  0  0
   -3.2609   -0.8608   -1.5872 C   0  0  0  0  0
    0.8570    0.4765   -0.6769 C   0  0  0  0  0
   -3.0225   -2.6490    0.5408 C   0  0  0  0  0
    1.8301    0.4954   -1.6761 C   0  0  0  0  0
   -3.3079   -3.1228   -0.7397 C   0  0  0  0  0
   -2.8563   -1.2811    0.7574 C   0  0  0  0  0
    1.8304    1.5129   -2.6302 C   0  0  0  0  0
   -0.1160    1.4751   -0.6320 C   0  0  0  0  0
   -2.9755   -0.3870   -0.3067 C   0  0  0  0  0
    2.8474   -0.5724   -1.7009 C   0  0  0  0  0
    2.4763    3.9650   -5.7932 C   0  0  0  0  0
    3.8410    4.1944   -5.1404 C   0  0  0  0  0
    2.3668    2.6796   -6.6159 C   0  0  0  0  0
    3.9397    3.7641   -3.6770 C   0  0  0  0  0
    1.7248    1.4981   -5.8887 C   0  0  0  0  0
    4.0697    2.2576   -3.4637 C   0  0  0  0  0
    2.6381    0.7946   -4.8874 C   0  0  0  0  0
   -3.4852   -4.5856   -0.9720 C   0  0  0  0  0
   -2.5514   -0.8065    2.1405 C   0  0  0  0  0
    2.7973    1.5498   -3.6404 N   0  0  0  0  0
   -1.1123    1.4561    0.3904 N   0  0  0  0  0
    2.6034   -1.6409   -2.3745 O   0  0  0  0  0
    3.9417   -0.3969   -1.0480 O   0  0  0  0  0
   -3.5969    1.7239    1.0659 O   0  0  0  0  0
   -2.9720    2.0040   -1.3487 O   0  0  0  0  0
   -2.7699    1.3546   -0.0678 S   0  0  0  0  0
  1  8  1  0  0  0
  2 10  1  0  0  0
  3 11  1  0  0  0
  4 12  1  0  0  0
  5  7  1  0  0  0
  6  9  1  0  0  0
  7 13  1  0  0  0
 10 23  1  0  0  0
 11 24  1  0  0  0
 13 25  1  0  0  0
 14 15  1  0  0  0
 14 16  1  0  0  0
 15 17  1  0  0  0
 16 18  1  0  0  0
 17 19  1  0  0  0
 18 20  1  0  0  0
 19 23  1  0  0  0
 20 23  1  0  0  0
 21  8  1  0  0  0
 22  9  1  0  0  0
 29 12  1  0  0  0
 29 24  1  0  0  0
  1  4  2  0  0  0
  2  3  2  0  0  0
  5 11  2  0  0  0
  6  8  2  0  0  0
  7 10  2  0  0  0
  9 12  2  0  0  0
 13 26  2  0  0  0
 29 27  2  0  0  0
 29 28  2  0  0  0
M  CHG  1  25  -1
M  END
> <rmsd>
0.527956545

$$$$
ZINC33253437


 29 31  0  0  0  0  0  0  0  0999 V2000
   -3.2447   -2.5884    0.4331 C   0  0  0  0  0
   -2.4210   -2.2378   -1.8109 C   0  0  0  0  0
    1.0207    2.8841   -2.1906 C   0  0  0  0  0
   -0.0386    2.7671   -1.2907 C   0  0  0  0  0
   -3.2077   -1.2129    0.6616 C   0  0  0  0  0
   -2.3840   -0.8623   -1.5825 C   0  0  0  0  0
    0.9952    0.8069   -0.3285 C   0  0  0  0  0
    2.0545    0.9238   -1.2284 C   0  0  0  0  0
   -2.8514   -3.1009   -0.8031 C   0  0  0  0  0
    2.0672    1.9624   -2.1594 C   0  0  0  0  0
   -0.0515    1.7285   -0.3597 C   0  0  0  0  0
   -2.7774   -0.3499   -0.3462 C   0  0  0  0  0
    3.1486   -0.0640   -1.1742 C   0  0  0  0  0
    4.0925    1.6313   -5.2853 C   0  0  0  0  0
    5.5254    2.4991   -3.4272 C   0  0  0  0  0
    2.8415    2.0442   -4.5100 C   0  0  0  0  0
    4.2709    2.9144   -2.6605 C   0  0  0  0  0
    5.2903    2.5222   -4.9411 C   0  0  0  0  0
    6.5395    2.0686   -5.6924 C   0  0  0  0  0
   -1.4936   -5.1558   -1.3396 C   0  0  0  0  0
   -3.8635   -4.9570   -2.1759 C   0  0  0  0  0
   -2.8888   -4.5716   -1.0470 C   0  0  0  0  0
    3.1210    2.0974   -3.0712 N   0  0  0  0  0
   -1.1360    1.6091    0.5611 N   0  0  0  0  0
    3.0526   -1.1302   -1.8874 O   0  0  0  0  0
    4.1591    0.1762   -0.4153 O   0  0  0  0  0
   -3.6867    1.6731    0.9980 O   0  0  0  0  0
   -2.8586    2.0605   -1.3394 O   0  0  0  0  0
   -2.7299    1.3957   -0.0570 S   0  0  0  0  0
  1  9  1  0  0  0
  2  6  1  0  0  0
  3 10  1  0  0  0
  4 11  1  0  0  0
  5 12  1  0  0  0
  7  8  1  0  0  0
  8 13  1  0  0  0
 10 23  1  0  0  0
 11 24  1  0  0  0
 13 25  1  0  0  0
 14 16  1  0  0  0
 14 18  1  0  0  0
 15 17  1  0  0  0
 15 18  1  0  0  0
 16 23  1  0  0  0
 17 23  1  0  0  0
 18 19  1  0  0  0
 20 22  1  0  0  0
 21 22  1  0  0  0
 22  9  1  0  0  0
 29 12  1  0  0  0
 29 24  1  0  0  0
  1  5  2  0  0  0
  2  9  2  0  0  0
  3  4  2  0  0  0
  6 12  2  0  0  0
  7 11  2  0  0  0
  8 10  2  0  0  0
 13 26  2  0  0  0
 29 27  2  0  0  0
 29 28  2  0  0  0
M  CHG  1  25  -1
M  END
> <rmsd>
0.70737946

$$$$
ZINC33253437


 29 31  0  0  0  0  0  0  0  0999 V2000
   -3.5403   -2.5660    0.5393 C   0  0  0  0  0
   -2.9068   -2.3067   -1.7777 C   0  0  0  0  0
    0.8686    2.5244   -2.5712 C   0  0  0  0  0
   -0.1072    2.5012   -1.5748 C   0  0  0  0  0
   -3.3759   -1.1952    0.7376 C   0  0  0  0  0
   -2.7426   -0.9359   -1.5794 C   0  0  0  0  0
    0.8583    0.4769   -0.6764 C   0  0  0  0  0
    1.8340    0.5001   -1.6729 C   0  0  0  0  0
   -3.3057   -3.1218   -0.7183 C   0  0  0  0  0
    1.8392    1.5238   -2.6202 C   0  0  0  0  0
   -0.1124    1.4775   -0.6273 C   0  0  0  0  0
   -2.9771   -0.3801   -0.3217 C   0  0  0  0  0
    2.8490   -0.5700   -1.7021 C   0  0  0  0  0
    3.5297    0.9991   -5.9141 C   0  0  0  0  0
    5.1937    1.7727   -4.2137 C   0  0  0  0  0
    2.3928    1.5178   -5.0337 C   0  0  0  0  0
    4.0528    2.2940   -3.3416 C   0  0  0  0  0
    4.8197    1.7970   -5.6994 C   0  0  0  0  0
    5.9540    1.2382   -6.5549 C   0  0  0  0  0
   -2.1671   -5.2829   -1.3402 C   0  0  0  0  0
   -4.5827   -4.9082   -1.9562 C   0  0  0  0  0
   -3.4792   -4.5877   -0.9302 C   0  0  0  0  0
    2.8097    1.5652   -3.6284 N   0  0  0  0  0
   -1.1115    1.4541    0.3923 N   0  0  0  0  0
    2.6043   -1.6333   -2.3833 O   0  0  0  0  0
    3.9419   -0.4013   -1.0451 O   0  0  0  0  0
   -3.5971    1.7231    1.0632 O   0  0  0  0  0
   -2.9653    2.0177   -1.3480 O   0  0  0  0  0
   -2.7681    1.3595   -0.0708 S   0  0  0  0  0
  1  9  1  0  0  0
  2  6  1  0  0  0
  3 10  1  0  0  0
  4 11  1  0  0  0
  5 12  1  0  0  0
  7  8  1  0  0  0
  8 13  1  0  0  0
 10 23  1  0  0  0
 11 24  1  0  0  0
 13 25  1  0  0  0
 14 16  1  0  0  0
 14 18  1  0  0  0
 15 17  1  0  0  0
 15 18  1  0  0  0
 16 23  1  0  0  0
 17 23  1  0  0  0
 18 19  1  0  0  0
 20 22  1  0  0  0
 21 22  1  0  0  0
 22  9  1  0  0  0
 29 12  1  0  0  0
 29 24  1  0  0  0
  1  5  2  0  0  0
  2  9  2  0  0  0
  3  4  2  0  0  0
  6 12  2  0  0  0
  7 11  2  0  0  0
  8 10  2  0  0  0
 13 26  2  0  0  0
 29 27  2  0  0  0
 29 28  2  0  0  0
M  CHG  1  25  -1
M  END
> <rmsd>
0.526337862

$$$$
ZINC32962200


 29 31  0  0  0  0  0  0  0  0999 V2000
    0.8687    2.5236   -2.5712 C   0  0  0  0  0
   -0.1071    2.5005   -1.5748 C   0  0  0  0  0
    0.8584    0.4763   -0.6762 C   0  0  0  0  0
   -3.3069   -3.1225   -0.7170 C   0  0  0  0  0
   -3.3759   -1.1953    0.7382 C   0  0  0  0  0
   -2.7431   -0.9370   -1.5791 C   0  0  0  0  0
    1.8342    0.4993   -1.6727 C   0  0  0  0  0
   -3.5408   -2.5662    0.5404 C   0  0  0  0  0
   -2.9080   -2.3079   -1.7768 C   0  0  0  0  0
    1.8393    1.5231   -2.6202 C   0  0  0  0  0
   -0.1123    1.4768   -0.6273 C   0  0  0  0  0
   -2.9770   -0.3807   -0.3215 C   0  0  0  0  0
    2.8490   -0.5706   -1.7019 C   0  0  0  0  0
    2.4991    3.9942   -5.7654 C   0  0  0  0  0
    3.8627    4.2161   -5.1077 C   0  0  0  0  0
    2.3888    2.7143   -6.5968 C   0  0  0  0  0
    3.9565    3.7760   -3.6469 C   0  0  0  0  0
    1.7422    1.5297   -5.8790 C   0  0  0  0  0
    4.0826    2.2679   -3.4431 C   0  0  0  0  0
    2.6512    0.8175   -4.8799 C   0  0  0  0  0
   -3.9671   -3.4371    1.6734 C   0  0  0  0  0
   -2.6578   -2.9029   -3.1213 C   0  0  0  0  0
    2.8089    1.5643   -3.6276 N   0  0  0  0  0
   -1.1114    1.4535    0.3923 N   0  0  0  0  0
    2.6043   -1.6341   -2.3830 O   0  0  0  0  0
    3.9420   -0.4020   -1.0450 O   0  0  0  0  0
   -3.5970    1.7227    1.0632 O   0  0  0  0  0
   -2.9652    2.0171   -1.3479 O   0  0  0  0  0
   -2.7680    1.3588   -0.0708 S   0  0  0  0  0
  1 10  1  0  0  0
  2 11  1  0  0  0
  3  7  1  0  0  0
  4  9  1  0  0  0
  5  8  1  0  0  0
  6 12  1  0  0  0
  7 13  1  0  0  0
 10 23  1  0  0  0
 11 24  1  0  0  0
 13 25  1  0  0  0
 14 15  1  0  0  0
 14 16  1  0  0  0
 15 17  1  0  0  0
 16 18  1  0  0  0
 17 19  1  0  0  0
 18 20  1  0  0  0
 19 23  1  0  0  0
 20 23  1  0  0  0
 21  8  1  0  0  0
 22  9  1  0  0  0
 29 12  1  0  0  0
 29 24  1  0  0  0
  1  2  2  0  0  0
  3 11  2  0  0  0
  4  8  2  0  0  0
  5 12  2  0  0  0
  6  9  2  0  0  0
  7 10  2  0  0  0
 13 26  2  0  0  0
 29 27  2  0  0  0
 29 28  2  0  0  0
M  CHG  1  25  -1
M  END
> <rmsd>
0.525980175

$$$$
ZINC32962200


 29 31  0  0  0  0  0  0  0  0999 V2000
    1.0210    2.8834   -2.1904 C   0  0  0  0  0
   -0.0384    2.7664   -1.2907 C   0  0  0  0  0
    0.9954    0.8063   -0.3282 C   0  0  0  0  0
   -2.8524   -3.1017   -0.8019 C   0  0  0  0  0
   -3.2076   -1.2130    0.6622 C   0  0  0  0  0
   -2.3843   -0.8635   -1.5821 C   0  0  0  0  0
    2.0548    0.9232   -1.2281 C   0  0  0  0  0
   -3.2452   -2.5887    0.4342 C   0  0  0  0  0
   -2.4219   -2.2391   -1.8101 C   0  0  0  0  0
    2.0676    1.9617   -2.1592 C   0  0  0  0  0
   -0.0512    1.7279   -0.3595 C   0  0  0  0  0
   -2.7771   -0.3504   -0.3460 C   0  0  0  0  0
    3.1489   -0.0646   -1.1737 C   0  0  0  0  0
    2.8208    4.5347   -5.2001 C   0  0  0  0  0
    4.0956    4.8488   -4.4143 C   0  0  0  0  0
    2.8891    3.2659   -6.0526 C   0  0  0  0  0
    4.0875    4.3901   -2.9563 C   0  0  0  0  0
    2.2736    2.0217   -5.4124 C   0  0  0  0  0
    4.3121    2.8927   -2.7586 C   0  0  0  0  0
    3.1389    1.3632   -4.3403 C   0  0  0  0  0
   -3.7053   -3.5109    1.5121 C   0  0  0  0  0
   -2.0018   -2.7878   -3.1317 C   0  0  0  0  0
    3.1204    2.0964   -3.0703 N   0  0  0  0  0
   -1.1358    1.6085    0.5611 N   0  0  0  0  0
    3.0529   -1.1309   -1.8869 O   0  0  0  0  0
    4.1594    0.1756   -0.4150 O   0  0  0  0  0
   -3.6865    1.6726    0.9980 O   0  0  0  0  0
   -2.8584    2.0598   -1.3394 O   0  0  0  0  0
   -2.7297    1.3950   -0.0570 S   0  0  0  0  0
  1 10  1  0  0  0
  2 11  1  0  0  0
  3  7  1  0  0  0
  4  9  1  0  0  0
  5  8  1  0  0  0
  6 12  1  0  0  0
  7 13  1  0  0  0
 10 23  1  0  0  0
 11 24  1  0  0  0
 13 25  1  0  0  0
 14 15  1  0  0  0
 14 16  1  0  0  0
 15 17  1  0  0  0
 16 18  1  0  0  0
 17 19  1  0  0  0
 18 20  1  0  0  0
 19 23  1  0  0  0
 20 23  1  0  0  0
 21  8  1  0  0  0
 22  9  1  0  0  0
 29 12  1  0  0  0
 29 24  1  0  0  0
  1  2  2  0  0  0
  3 11  2  0  0  0
  4  8  2  0  0  0
  5 12  2  0  0  0
  6  9  2  0  0  0
  7 10  2  0  0  0
 13 26  2  0  0  0
 29 27  2  0  0  0
 29 28  2  0  0  0
M  CHG  1  25  -1
M  END
> <rmsd>
0.707144976

$$$$
ZINC15729572


 29 31  0  0  0  0  0  0  0  0999 V2000
   -3.5404   -2.5665    0.5400 C   0  0  0  0  0
   -2.9069   -2.3074   -1.7771 C   0  0  0  0  0
    0.8683    2.5240   -2.5707 C   0  0  0  0  0
   -0.1074    2.5008   -1.5743 C   0  0  0  0  0
   -3.3761   -1.1957    0.7382 C   0  0  0  0  0
   -2.7426   -0.9365   -1.5788 C   0  0  0  0  0
    0.8581    0.4766   -0.6758 C   0  0  0  0  0
    1.8339    0.4997   -1.6722 C   0  0  0  0  0
   -3.3057   -3.1225   -0.7176 C   0  0  0  0  0
    1.8390    1.5234   -2.6197 C   0  0  0  0  0
   -0.1125    1.4771   -0.6269 C   0  0  0  0  0
   -2.9772   -0.3806   -0.3211 C   0  0  0  0  0
    2.8489   -0.5703   -1.7014 C   0  0  0  0  0
    3.9942    3.4606   -5.6686 C   0  0  0  0  0
    3.2182    2.5633   -6.6316 C   0  0  0  0  0
    4.8309    2.6793   -4.6553 C   0  0  0  0  0
    2.1221    1.7186   -5.9851 C   0  0  0  0  0
    4.0660    2.2824   -3.3912 C   0  0  0  0  0
    2.6276    0.8086   -4.8677 C   0  0  0  0  0
   -2.1670   -5.2836   -1.3394 C   0  0  0  0  0
   -4.5826   -4.9088   -1.9556 C   0  0  0  0  0
   -3.4792   -4.5883   -0.9294 C   0  0  0  0  0
    2.8096    1.5647   -3.6279 N   0  0  0  0  0
   -1.1117    1.4537    0.3928 N   0  0  0  0  0
    2.6042   -1.6337   -2.3825 O   0  0  0  0  0
    3.9418   -0.4015   -1.0444 O   0  0  0  0  0
   -3.5974    1.7228    1.0636 O   0  0  0  0  0
   -2.9655    2.0172   -1.3476 O   0  0  0  0  0
   -2.7684    1.3590   -0.0704 S   0  0  0  0  0
  1  9  1  0  0  0
  2  6  1  0  0  0
  3 10  1  0  0  0
  4 11  1  0  0  0
  5 12  1  0  0  0
  7  8  1  0  0  0
  8 13  1  0  0  0
 10 23  1  0  0  0
 11 24  1  0  0  0
 13 25  1  0  0  0
 14 15  1  0  0  0
 14 16  1  0  0  0
 15 17  1  0  0  0
 16 18  1  0  0  0
 17 19  1  0  0  0
 18 23  1  0  0  0
 19 23  1  0  0  0
 20 22  1  0  0  0
 21 22  1  0  0  0
 22  9  1  0  0  0
 29 12  1  0  0  0
 29 24  1  0  0  0
  1  5  2  0  0  0
  2  9  2  0  0  0
  3  4  2  0  0  0
  6 12  2  0  0  0
  7 11  2  0  0  0
  8 10  2  0  0  0
 13 26  2  0  0  0
 29 27  2  0  0  0
 29 28  2  0  0  0
M  CHG  1  25  -1
M  END
> <rmsd>
0.526307344

$$$$
ZINC15729572


 29 31  0  0  0  0  0  0  0  0999 V2000
   -3.2448   -2.5889    0.4337 C   0  0  0  0  0
   -2.4212   -2.2384   -1.8104 C   0  0  0  0  0
    1.0201    2.8838   -2.1903 C   0  0  0  0  0
   -0.0391    2.7668   -1.2905 C   0  0  0  0  0
   -3.2079   -1.2134    0.6621 C   0  0  0  0  0
   -2.3843   -0.8629   -1.5819 C   0  0  0  0  0
    0.9949    0.8066   -0.3282 C   0  0  0  0  0
    2.0541    0.9236   -1.2282 C   0  0  0  0  0
   -2.8515   -3.1015   -0.8025 C   0  0  0  0  0
    2.0667    1.9622   -2.1592 C   0  0  0  0  0
   -0.0518    1.7282   -0.3594 C   0  0  0  0  0
   -2.7776   -0.3504   -0.3456 C   0  0  0  0  0
    3.1483   -0.0642   -1.1740 C   0  0  0  0  0
    4.3368    4.1166   -4.9697 C   0  0  0  0  0
    3.7265    3.1802   -6.0115 C   0  0  0  0  0
    5.1346    3.3833   -3.8912 C   0  0  0  0  0
    2.6448    2.2416   -5.4806 C   0  0  0  0  0
    4.2892    2.9051   -2.7092 C   0  0  0  0  0
    3.1143    1.3525   -4.3311 C   0  0  0  0  0
   -1.4937   -5.1563   -1.3390 C   0  0  0  0  0
   -3.8636   -4.9576   -2.1753 C   0  0  0  0  0
   -2.8888   -4.5721   -1.0463 C   0  0  0  0  0
    3.1205    2.0971   -3.0712 N   0  0  0  0  0
   -1.1364    1.6087    0.5614 N   0  0  0  0  0
    3.0522   -1.1303   -1.8872 O   0  0  0  0  0
    4.1588    0.1761   -0.4153 O   0  0  0  0  0
   -3.6870    1.6726    0.9985 O   0  0  0  0  0
   -2.8590    2.0600   -1.3390 O   0  0  0  0  0
   -2.7303    1.3951   -0.0566 S   0  0  0  0  0
  1  9  1  0  0  0
  2  6  1  0  0  0
  3 10  1  0  0  0
  4 11  1  0  0  0
  5 12  1  0  0  0
  7  8  1  0  0  0
  8 13  1  0  0  0
 10 23  1  0  0  0
 11 24  1  0  0  0
 13 25  1  0  0  0
 14 15  1  0  0  0
 14 16  1  0  0  0
 15 17  1  0  0  0
 16 18  1  0  0  0
 17 19  1  0  0  0
 18 23  1  0  0  0
 19 23  1  0  0  0
 20 22  1  0  0  0
 21 22  1  0  0  0
 22  9  1  0  0  0
 29 12  1  0  0  0
 29 24  1  0  0  0
  1  5  2  0  0  0
  2  9  2  0  0  0
  3  4  2  0  0  0
  6 12  2  0  0  0
  7 11  2  0  0  0
  8 10  2  0  0  0
 13 26  2  0  0  0
 29 27  2  0  0  0
 29 28  2  0  0  0
M  CHG  1  25  -1
M  END
> <rmsd>
0.707266271

$$$$
ZINC32962181


 29 31  0  0  0  0  0  0  0  0999 V2000
   -3.5402   -2.5652    0.5409 C   0  0  0  0  0
    0.8687    2.5247   -2.5704 C   0  0  0  0  0
   -0.1071    2.5014   -1.5741 C   0  0  0  0  0
   -3.3765   -1.1941    0.7381 C   0  0  0  0  0
    0.8581    0.4768   -0.6759 C   0  0  0  0  0
   -2.7420   -0.9367   -1.5789 C   0  0  0  0  0
    1.8340    0.5001   -1.6723 C   0  0  0  0  0
   -3.3048   -3.1221   -0.7162 C   0  0  0  0  0
   -2.9057   -2.3078   -1.7760 C   0  0  0  0  0
    1.8393    1.5240   -2.6196 C   0  0  0  0  0
   -0.1125    1.4775   -0.6268 C   0  0  0  0  0
   -2.9774   -0.3798   -0.3218 C   0  0  0  0  0
    2.8488   -0.5700   -1.7017 C   0  0  0  0  0
    2.4996    3.9958   -5.7642 C   0  0  0  0  0
    3.8632    4.2174   -5.1062 C   0  0  0  0  0
    2.3892    2.7162   -6.5959 C   0  0  0  0  0
    3.9568    3.7770   -3.6455 C   0  0  0  0  0
    1.7425    1.5314   -5.8784 C   0  0  0  0  0
    4.0827    2.2689   -3.4420 C   0  0  0  0  0
    2.6513    0.8189   -4.8794 C   0  0  0  0  0
   -3.4858   -4.5928   -0.9029 C   0  0  0  0  0
   -2.6464   -2.8815   -3.1303 C   0  0  0  0  0
    2.8090    1.5654   -3.6269 N   0  0  0  0  0
   -1.1117    1.4540    0.3927 N   0  0  0  0  0
    2.6040   -1.6333   -2.3831 O   0  0  0  0  0
    3.9417   -0.4016   -1.0446 O   0  0  0  0  0
   -3.5974    1.7233    1.0633 O   0  0  0  0  0
   -2.9653    2.0181   -1.3476 O   0  0  0  0  0
   -2.7683    1.3596   -0.0706 S   0  0  0  0  0
  1  8  1  0  0  0
  2 10  1  0  0  0
  3 11  1  0  0  0
  4 12  1  0  0  0
  5  7  1  0  0  0
  6  9  1  0  0  0
  7 13  1  0  0  0
 10 23  1  0  0  0
 11 24  1  0  0  0
 13 25  1  0  0  0
 14 15  1  0  0  0
 14 16  1  0  0  0
 15 17  1  0  0  0
 16 18  1  0  0  0
 17 19  1  0  0  0
 18 20  1  0  0  0
 19 23  1  0  0  0
 20 23  1  0  0  0
 21  8  1  0  0  0
 22  9  1  0  0  0
 29 12  1  0  0  0
 29 24  1  0  0  0
  1  4  2  0  0  0
  2  3  2  0  0  0
  5 11  2  0  0  0
  6 12  2  0  0  0
  7 10  2  0  0  0
  8  9  2  0  0  0
 13 26  2  0  0  0
 29 27  2  0  0  0
 29 28  2  0  0  0
M  CHG  1  25  -1
M  END
> <rmsd>
0.526111543

$$$$
ZINC32962181


 29 31  0  0  0  0  0  0  0  0999 V2000
   -3.2448   -2.5876    0.4347 C   0  0  0  0  0
    1.0210    2.8843   -2.1895 C   0  0  0  0  0
   -0.0384    2.7672   -1.2899 C   0  0  0  0  0
   -3.2083   -1.2119    0.6620 C   0  0  0  0  0
    0.9951    0.8068   -0.3278 C   0  0  0  0  0
   -2.3833   -0.8631   -1.5818 C   0  0  0  0  0
    2.0546    0.9238   -1.2275 C   0  0  0  0  0
   -2.8504   -3.1012   -0.8008 C   0  0  0  0  0
   -2.4196   -2.2389   -1.8091 C   0  0  0  0  0
    2.0675    1.9626   -2.1584 C   0  0  0  0  0
   -0.0515    1.7285   -0.3590 C   0  0  0  0  0
   -2.7776   -0.3497   -0.3462 C   0  0  0  0  0
    3.1486   -0.0641   -1.1733 C   0  0  0  0  0
    2.8213    4.5362   -5.1986 C   0  0  0  0  0
    4.0961    4.8500   -4.4126 C   0  0  0  0  0
    2.8896    3.2676   -6.0514 C   0  0  0  0  0
    4.0878    4.3909   -2.9547 C   0  0  0  0  0
    2.2740    2.0233   -5.4116 C   0  0  0  0  0
    4.3122    2.8935   -2.7574 C   0  0  0  0  0
    3.1391    1.3645   -4.3395 C   0  0  0  0  0
   -2.8973   -4.5777   -1.0204 C   0  0  0  0  0
   -1.9913   -2.7655   -3.1393 C   0  0  0  0  0
    3.1205    2.0974   -3.0693 N   0  0  0  0  0
   -1.1362    1.6089    0.5615 N   0  0  0  0  0
    3.0526   -1.1302   -1.8867 O   0  0  0  0  0
    4.1590    0.1758   -0.4144 O   0  0  0  0  0
   -3.6869    1.6732    0.9981 O   0  0  0  0  0
   -2.8585    2.0608   -1.3391 O   0  0  0  0  0
   -2.7300    1.3957   -0.0568 S   0  0  0  0  0
  1  8  1  0  0  0
  2 10  1  0  0  0
  3 11  1  0  0  0
  4 12  1  0  0  0
  5  7  1  0  0  0
  6  9  1  0  0  0
  7 13  1  0  0  0
 10 23  1  0  0  0
 11 24  1  0  0  0
 13 25  1  0  0  0
 14 15  1  0  0  0
 14 16  1  0  0  0
 15 17  1  0  0  0
 16 18  1  0  0  0
 17 19  1  0  0  0
 18 20  1  0  0  0
 19 23  1  0  0  0
 20 23  1  0  0  0
 21  8  1  0  0  0
 22  9  1  0  0  0
 29 12  1  0  0  0
 29 24  1  0  0  0
  1  4  2  0  0  0
  2  3  2  0  0  0
  5 11  2  0  0  0
  6 12  2  0  0  0
  7 10  2  0  0  0
  8  9  2  0  0  0
 13 26  2  0  0  0
 29 27  2  0  0  0
 29 28  2  0  0  0
M  CHG  1  25  -1
M  END
> <rmsd>
0.707300782

$$$$
ZINC33253445


 29 31  0  0  0  0  0  0  0  0999 V2000
    0.8578    2.5116   -2.5852 C   0  0  0  0  0
   -0.1153    2.4926   -1.5862 C   0  0  0  0  0
    0.8571    0.4764   -0.6772 C   0  0  0  0  0
   -3.0219   -2.6493    0.5397 C   0  0  0  0  0
   -3.2602   -0.8607   -1.5878 C   0  0  0  0  0
    1.8303    0.4954   -1.6763 C   0  0  0  0  0
   -3.3068   -3.1229   -0.7410 C   0  0  0  0  0
   -2.8562   -1.2815    0.7567 C   0  0  0  0  0
   -3.4259   -2.2286   -1.8047 C   0  0  0  0  0
    1.8306    1.5130   -2.6303 C   0  0  0  0  0
   -0.1157    1.4750   -0.6321 C   0  0  0  0  0
   -2.9753   -0.3872   -0.3072 C   0  0  0  0  0
    2.8476   -0.5725   -1.7012 C   0  0  0  0  0
    3.5139    0.9710   -5.9250 C   0  0  0  0  0
    5.1805    1.7593   -4.2340 C   0  0  0  0  0
    2.3781    1.4927   -5.0451 C   0  0  0  0  0
    4.0406    2.2836   -3.3623 C   0  0  0  0  0
    4.8026    1.7731   -5.7188 C   0  0  0  0  0
   -3.4802   -4.5917   -0.9490 C   0  0  0  0  0
   -2.5510   -0.8069    2.1400 C   0  0  0  0  0
   -3.7308   -2.7126   -3.1845 C   0  0  0  0  0
    5.9360    1.2115   -6.5736 C   0  0  0  0  0
    2.7985    1.5501   -3.6412 N   0  0  0  0  0
   -1.1121    1.4559    0.3903 N   0  0  0  0  0
    2.6037   -1.6408   -2.3750 O   0  0  0  0  0
    3.9419   -0.3971   -1.0481 O   0  0  0  0  0
   -3.5967    1.7236    1.0657 O   0  0  0  0  0
   -2.9717    2.0040   -1.3488 O   0  0  0  0  0
   -2.7697    1.3545   -0.0680 S   0  0  0  0  0
  1 10  1  0  0  0
  2 11  1  0  0  0
  3  6  1  0  0  0
  4  7  1  0  0  0
  5  9  1  0  0  0
  6 13  1  0  0  0
  8 12  1  0  0  0
 10 23  1  0  0  0
 11 24  1  0  0  0
 13 25  1  0  0  0
 14 16  1  0  0  0
 14 18  1  0  0  0
 15 17  1  0  0  0
 15 18  1  0  0  0
 16 23  1  0  0  0
 17 23  1  0  0  0
 18 22  1  0  0  0
 19  7  1  0  0  0
 20  8  1  0  0  0
 21  9  1  0  0  0
 29 12  1  0  0  0
 29 24  1  0  0  0
  1  2  2  0  0  0
  3 11  2  0  0  0
  4  8  2  0  0  0
  5 12  2  0  0  0
  6 10  2  0  0  0
  7  9  2  0  0  0
 13 26  2  0  0  0
 29 27  2  0  0  0
 29 28  2  0  0  0
M  CHG  1  25  -1
M  END
> <rmsd>
0.528315187

$$$$
ZINC33253445


 29 31  0  0  0  0  0  0  0  0999 V2000
    1.0094    2.8742   -2.2076 C   0  0  0  0  0
   -0.0472    2.7605   -1.3041 C   0  0  0  0  0
    0.9937    0.8088   -0.3323 C   0  0  0  0  0
   -2.7216   -2.6314    0.4797 C   0  0  0  0  0
   -2.9034   -0.8261   -1.6394 C   0  0  0  0  0
    2.0503    0.9224   -1.2359 C   0  0  0  0  0
   -2.8489   -3.1010   -0.8275 C   0  0  0  0  0
   -2.6854   -1.2592    0.7274 C   0  0  0  0  0
   -2.9397   -2.1984   -1.8870 C   0  0  0  0  0
    2.0581    1.9551   -2.1734 C   0  0  0  0  0
   -0.0551    1.7279   -0.3664 C   0  0  0  0  0
   -2.7762   -0.3566   -0.3322 C   0  0  0  0  0
    3.1468   -0.0625   -1.1783 C   0  0  0  0  0
    4.0756    1.6087   -5.3027 C   0  0  0  0  0
    5.5115    2.4915   -3.4541 C   0  0  0  0  0
    2.8258    2.0237   -4.5266 C   0  0  0  0  0
    4.2582    2.9089   -2.6866 C   0  0  0  0  0
    5.2722    2.5044   -4.9675 C   0  0  0  0  0
   -2.8857   -4.5745   -1.0683 C   0  0  0  0  0
   -2.5474   -0.7889    2.1388 C   0  0  0  0  0
   -3.0769   -2.6781   -3.2949 C   0  0  0  0  0
    6.5204    2.0490   -5.7194 C   0  0  0  0  0
    3.1091    2.0866   -3.0890 N   0  0  0  0  0
   -1.1368    1.6118    0.5581 N   0  0  0  0  0
    3.0513   -1.1334   -1.8845 O   0  0  0  0  0
    4.1589    0.1848   -0.4238 O   0  0  0  0  0
   -3.6864    1.6728    1.0016 O   0  0  0  0  0
   -2.8657    2.0472   -1.3405 O   0  0  0  0  0
   -2.7319    1.3909   -0.0542 S   0  0  0  0  0
  1 10  1  0  0  0
  2 11  1  0  0  0
  3  6  1  0  0  0
  4  7  1  0  0  0
  5  9  1  0  0  0
  6 13  1  0  0  0
  8 12  1  0  0  0
 10 23  1  0  0  0
 11 24  1  0  0  0
 13 25  1  0  0  0
 14 16  1  0  0  0
 14 18  1  0  0  0
 15 17  1  0  0  0
 15 18  1  0  0  0
 16 23  1  0  0  0
 17 23  1  0  0  0
 18 22  1  0  0  0
 19  7  1  0  0  0
 20  8  1  0  0  0
 21  9  1  0  0  0
 29 12  1  0  0  0
 29 24  1  0  0  0
  1  2  2  0  0  0
  3 11  2  0  0  0
  4  8  2  0  0  0
  5 12  2  0  0  0
  6 10  2  0  0  0
  7  9  2  0  0  0
 13 26  2  0  0  0
 29 27  2  0  0  0
 29 28  2  0  0  0
M  CHG  1  25  -1
M  END
> <rmsd>
0.710113168

$$$$
ZINC33253888


 29 31  0  0  0  0  0  0  0  0999 V2000
    1.9424    1.5946   -2.4783 C   0  0  0  0  0
   -3.4457   -2.5781    0.5034 C   0  0  0  0  0
   -2.7521   -2.2961   -1.7938 C   0  0  0  0  0
    1.0429    2.6565   -2.3843 C   0  0  0  0  0
   -3.3181   -1.2047    0.7105 C   0  0  0  0  0
   -2.6246   -0.9226   -1.5865 C   0  0  0  0  0
    0.8209    0.4828   -0.6497 C   0  0  0  0  0
    1.8313    0.5077   -1.6110 C   0  0  0  0  0
   -3.1626   -3.1239   -0.7489 C   0  0  0  0  0
    0.0326    2.6317   -1.4229 C   0  0  0  0  0
   -0.0784    1.5449   -0.5557 C   0  0  0  0  0
   -2.9075   -0.3769   -0.3344 C   0  0  0  0  0
    2.7805   -0.6128   -1.7108 C   0  0  0  0  0
   -2.3067    5.1802   -0.0033 C   0  0  0  0  0
   -2.5120    5.1271   -2.4960 C   0  0  0  0  0
   -0.9508    4.4812   -0.1027 C   0  0  0  0  0
   -1.1537    4.4339   -2.5881 C   0  0  0  0  0
   -2.6041    6.0165   -1.2517 C   0  0  0  0  0
   -3.9793    6.6723   -1.1525 C   0  0  0  0  0
   -1.9582   -5.2565   -1.3445 C   0  0  0  0  0
   -4.3630   -4.9338   -2.0285 C   0  0  0  0  0
   -3.2970   -4.5925   -0.9702 C   0  0  0  0  0
   -0.8597    3.7077   -1.3454 N   0  0  0  0  0
   -1.1064    1.4973    0.4382 N   0  0  0  0  0
    2.6565   -1.6042   -0.8981 O   0  0  0  0  0
    3.7039   -0.5651   -2.6073 O   0  0  0  0  0
   -3.6129    1.7064    1.0397 O   0  0  0  0  0
   -2.9222    2.0246   -1.3522 O   0  0  0  0  0
   -2.7451    1.3659   -0.0722 S   0  0  0  0  0
  1  8  1  0  0  0
  2  9  1  0  0  0
  3  6  1  0  0  0
  4 10  1  0  0  0
  5 12  1  0  0  0
  7 11  1  0  0  0
  8 13  1  0  0  0
 10 23  1  0  0  0
 11 24  1  0  0  0
 13 25  1  0  0  0
 14 16  1  0  0  0
 14 18  1  0  0  0
 15 17  1  0  0  0
 15 18  1  0  0  0
 16 23  1  0  0  0
 17 23  1  0  0  0
 18 19  1  0  0  0
 20 22  1  0  0  0
 21 22  1  0  0  0
 22  9  1  0  0  0
 29 12  1  0  0  0
 29 24  1  0  0  0
  1  4  2  0  0  0
  2  5  2  0  0  0
  3  9  2  0  0  0
  6 12  2  0  0  0
  7  8  2  0  0  0
 10 11  2  0  0  0
 13 26  2  0  0  0
 29 27  2  0  0  0
 29 28  2  0  0  0
M  CHG  1  25  -1
M  END
> <rmsd>
0.589452267

$$$$
ZINC64843323


 29 31  0  0  0  0  0  0  0  0999 V2000
   -3.2813   -2.5838    0.4548 C   0  0  0  0  0
   -2.4379   -2.2573   -1.7856 C   0  0  0  0  0
   -3.2315   -1.2073    0.6741 C   0  0  0  0  0
   -2.3882   -0.8807   -1.5663 C   0  0  0  0  0
    1.0050    0.7851   -0.3096 C   0  0  0  0  0
    0.0114    2.7190   -1.2737 C   0  0  0  0  0
   -2.8844   -3.1089   -0.7751 C   0  0  0  0  0
    2.0572    0.9145   -1.2093 C   0  0  0  0  0
   -0.0413    1.7004   -0.3359 C   0  0  0  0  0
   -2.7850   -0.3557   -0.3364 C   0  0  0  0  0
    2.0158    1.9681   -2.1081 C   0  0  0  0  0
   -2.9365   -4.5442   -1.0036 C   0  0  0  0  0
    3.1645   -0.0565   -1.1795 C   0  0  0  0  0
    4.2932    4.1277   -4.9087 C   0  0  0  0  0
    3.6856    3.1933   -5.9539 C   0  0  0  0  0
    5.0882    3.3923   -3.8295 C   0  0  0  0  0
    2.6025    2.2537   -5.4275 C   0  0  0  0  0
    4.2397    2.9119   -2.6507 C   0  0  0  0  0
    3.0691    1.3625   -4.2785 C   0  0  0  0  0
   -2.7406   -5.4428    0.1829 C   0  0  0  0  0
    1.0165    2.8770   -2.1638 N   0  0  0  0  0
    3.0720    2.1048   -3.0171 N   0  0  0  0  0
   -1.1336    1.5940    0.5731 N   0  0  0  0  0
    3.0777   -1.1161   -1.9054 O   0  0  0  0  0
   -3.1247   -5.0789   -2.0983 O   0  0  0  0  0
    4.1811    0.1875   -0.4285 O   0  0  0  0  0
   -3.6899    1.6835    0.9861 O   0  0  0  0  0
   -2.8359    2.0489   -1.3454 O   0  0  0  0  0
   -2.7253    1.3912   -0.0576 S   0  0  0  0  0
  1  7  1  0  0  0
  2  4  1  0  0  0
  3 10  1  0  0  0
  5  9  1  0  0  0
  6 21  1  0  0  0
  7 12  1  0  0  0
  8 11  1  0  0  0
  8 13  1  0  0  0
  9 23  1  0  0  0
 11 22  1  0  0  0
 13 24  1  0  0  0
 14 15  1  0  0  0
 14 16  1  0  0  0
 15 17  1  0  0  0
 16 18  1  0  0  0
 17 19  1  0  0  0
 18 22  1  0  0  0
 19 22  1  0  0  0
 20 12  1  0  0  0
 29 10  1  0  0  0
 29 23  1  0  0  0
  1  3  2  0  0  0
  2  7  2  0  0  0
  4 10  2  0  0  0
  5  8  2  0  0  0
  6  9  2  0  0  0
 11 21  2  0  0  0
 12 25  2  0  0  0
 13 26  2  0  0  0
 29 27  2  0  0  0
 29 28  2  0  0  0
M  CHG  1  24  -1
M  END
> <rmsd>
0.687935948

$$$$
ZINC64843323


 29 31  0  0  0  0  0  0  0  0999 V2000
   -3.5717   -2.5592    0.5609 C   0  0  0  0  0
   -2.9205   -2.3233   -1.7537 C   0  0  0  0  0
   -3.3962   -1.1884    0.7500 C   0  0  0  0  0
   -2.7451   -0.9525   -1.5647 C   0  0  0  0  0
    0.8689    0.4572   -0.6593 C   0  0  0  0  0
   -0.0601    2.4522   -1.5612 C   0  0  0  0  0
   -3.3337   -3.1267   -0.6909 C   0  0  0  0  0
    1.8385    0.4946   -1.6551 C   0  0  0  0  0
   -0.1021    1.4509   -0.6044 C   0  0  0  0  0
   -2.9830   -0.3850   -0.3128 C   0  0  0  0  0
    1.7935    1.5386   -2.5650 C   0  0  0  0  0
   -3.5169   -4.5559   -0.8878 C   0  0  0  0  0
    2.8660   -0.5593   -1.7111 C   0  0  0  0  0
    3.9556    3.4841   -5.6036 C   0  0  0  0  0
    3.1826    2.5888   -6.5708 C   0  0  0  0  0
    4.7901    2.7006   -4.5900 C   0  0  0  0  0
    2.0852    1.7421   -5.9291 C   0  0  0  0  0
    4.0220    2.3004   -3.3289 C   0  0  0  0  0
    2.5882    0.8296   -4.8126 C   0  0  0  0  0
   -3.2796   -5.4543    0.2912 C   0  0  0  0  0
    0.8659    2.5219   -2.5436 N   0  0  0  0  0
    2.7667    1.5828   -3.5706 N   0  0  0  0  0
   -1.1089    1.4397    0.4040 N   0  0  0  0  0
    2.6304   -1.6167   -2.4066 O   0  0  0  0  0
   -3.8477   -5.0860   -1.9505 O   0  0  0  0  0
    3.9646   -0.3873   -1.0624 O   0  0  0  0  0
   -3.6006    1.7324    1.0514 O   0  0  0  0  0
   -2.9444    2.0053   -1.3557 O   0  0  0  0  0
   -2.7638    1.3547   -0.0722 S   0  0  0  0  0
  1  7  1  0  0  0
  2  4  1  0  0  0
  3 10  1  0  0  0
  5  9  1  0  0  0
  6 21  1  0  0  0
  7 12  1  0  0  0
  8 11  1  0  0  0
  8 13  1  0  0  0
  9 23  1  0  0  0
 11 22  1  0  0  0
 13 24  1  0  0  0
 14 15  1  0  0  0
 14 16  1  0  0  0
 15 17  1  0  0  0
 16 18  1  0  0  0
 17 19  1  0  0  0
 18 22  1  0  0  0
 19 22  1  0  0  0
 20 12  1  0  0  0
 29 10  1  0  0  0
 29 23  1  0  0  0
  1  3  2  0  0  0
  2  7  2  0  0  0
  4 10  2  0  0  0
  5  8  2  0  0  0
  6  9  2  0  0  0
 11 21  2  0  0  0
 12 25  2  0  0  0
 13 26  2  0  0  0
 29 27  2  0  0  0
 29 28  2  0  0  0
M  CHG  1  24  -1
M  END
> <rmsd>
0.509153366

$$$$
ZINC35397694


 29 32  0  0  0  0  0  0  0  0999 V2000
   -3.5641   -2.5582    0.5536 C   0  0  0  0  0
   -3.3971   -1.1868    0.7437 C   0  0  0  0  0
    0.8683    0.4553   -0.6664 C   0  0  0  0  0
   -2.7430   -0.9498   -1.5665 C   0  0  0  0  0
   -0.0897    2.4174   -1.6091 C   0  0  0  0  0
    1.8267    0.4761   -1.6735 C   0  0  0  0  0
   -3.3145   -3.1420   -0.6976 C   0  0  0  0  0
   -2.9173   -2.3266   -1.7736 C   0  0  0  0  0
   -0.1117    1.4408   -0.6264 C   0  0  0  0  0
   -2.9844   -0.3834   -0.3153 C   0  0  0  0  0
    1.7617    1.4958   -2.6094 C   0  0  0  0  0
    2.8638   -0.5691   -1.7138 C   0  0  0  0  0
   -3.5390   -4.6233   -0.8723 C   0  0  0  0  0
   -2.6142   -2.9067   -3.1325 C   0  0  0  0  0
   -2.8846   -5.1883   -2.1317 C   0  0  0  0  0
   -3.1938   -4.3056   -3.3339 C   0  0  0  0  0
    3.5895    2.7049   -3.7284 C   0  0  0  0  0
    2.4718    0.8205   -4.8886 C   0  0  0  0  0
    4.8499    2.3524   -4.5101 C   0  0  0  0  0
    3.7918    0.5688   -5.6090 C   0  0  0  0  0
    0.8250    2.4704   -2.6030 N   0  0  0  0  0
    2.7225    1.5232   -3.6255 N   0  0  0  0  0
   -1.1165    1.4461    0.4024 N   0  0  0  0  0
    2.6310   -1.6463   -2.3791 O   0  0  0  0  0
    3.9675   -0.3701   -1.0818 O   0  0  0  0  0
   -3.5957    1.7315    1.0558 O   0  0  0  0  0
   -2.9527    2.0086   -1.3545 O   0  0  0  0  0
    4.5102    1.7905   -5.7776 O   0  0  0  0  0
   -2.7678    1.3323   -0.0763 S   0  0  0  0  0
  1  2  1  0  0  0
  3  9  1  0  0  0
  4 10  1  0  0  0
  5 21  1  0  0  0
  6 11  1  0  0  0
  6 12  1  0  0  0
  7  8  1  0  0  0
  9 23  1  0  0  0
 11 22  1  0  0  0
 12 24  1  0  0  0
 13  7  1  0  0  0
 13 15  1  0  0  0
 14  8  1  0  0  0
 14 16  1  0  0  0
 15 16  1  0  0  0
 17 19  1  0  0  0
 17 22  1  0  0  0
 18 20  1  0  0  0
 18 22  1  0  0  0
 19 28  1  0  0  0
 20 28  1  0  0  0
 29 10  1  0  0  0
 29 23  1  0  0  0
  1  7  2  0  0  0
  2 10  2  0  0  0
  3  6  2  0  0  0
  4  8  2  0  0  0
  5  9  2  0  0  0
 11 21  2  0  0  0
 12 25  2  0  0  0
 29 26  2  0  0  0
 29 27  2  0  0  0
M  CHG  1  24  -1
M  END
> <rmsd>
0.515407801

$$$$
ZINC35397694


 29 32  0  0  0  0  0  0  0  0999 V2000
   -3.2648   -2.5829    0.4430 C   0  0  0  0  0
   -3.2261   -1.2067    0.6650 C   0  0  0  0  0
    1.0037    0.7937   -0.3278 C   0  0  0  0  0
   -2.3874   -0.8728   -1.5724 C   0  0  0  0  0
   -0.0197    2.6928   -1.3291 C   0  0  0  0  0
    2.0442    0.9100   -1.2427 C   0  0  0  0  0
   -2.8575   -3.1201   -0.7875 C   0  0  0  0  0
   -2.4315   -2.2546   -1.8121 C   0  0  0  0  0
   -0.0518    1.6981   -0.3651 C   0  0  0  0  0
   -2.7853   -0.3524   -0.3414 C   0  0  0  0  0
    1.9823    1.9399   -2.1675 C   0  0  0  0  0
    3.1611   -0.0494   -1.2012 C   0  0  0  0  0
   -2.9458   -4.6107   -1.0009 C   0  0  0  0  0
   -1.9615   -2.7818   -3.1449 C   0  0  0  0  0
   -2.1373   -5.0972   -2.2022 C   0  0  0  0  0
   -2.4066   -4.2177   -3.4164 C   0  0  0  0  0
    3.8008    3.3113   -3.0991 C   0  0  0  0  0
    2.9469    1.3684   -4.3806 C   0  0  0  0  0
    5.1507    3.0747   -3.7666 C   0  0  0  0  0
    4.3424    1.2357   -4.9803 C   0  0  0  0  0
    0.9738    2.8375   -2.2344 N   0  0  0  0  0
    3.0256    2.0631   -3.0910 N   0  0  0  0  0
   -1.1425    1.6038    0.5675 N   0  0  0  0  0
    3.0763   -1.1281   -1.8987 O   0  0  0  0  0
    4.1838    0.2232   -0.4684 O   0  0  0  0  0
   -3.6853    1.6801    0.9948 O   0  0  0  0  0
   -2.8519    2.0551   -1.3428 O   0  0  0  0  0
    4.9729    2.5132   -5.0669 O   0  0  0  0  0
   -2.7294    1.3700   -0.0617 S   0  0  0  0  0
  1  2  1  0  0  0
  3  9  1  0  0  0
  4 10  1  0  0  0
  5 21  1  0  0  0
  6 11  1  0  0  0
  6 12  1  0  0  0
  7  8  1  0  0  0
  9 23  1  0  0  0
 11 22  1  0  0  0
 12 24  1  0  0  0
 13  7  1  0  0  0
 13 15  1  0  0  0
 14  8  1  0  0  0
 14 16  1  0  0  0
 15 16  1  0  0  0
 17 19  1  0  0  0
 17 22  1  0  0  0
 18 20  1  0  0  0
 18 22  1  0  0  0
 19 28  1  0  0  0
 20 28  1  0  0  0
 29 10  1  0  0  0
 29 23  1  0  0  0
  1  7  2  0  0  0
  2 10  2  0  0  0
  3  6  2  0  0  0
  4  8  2  0  0  0
  5  9  2  0  0  0
 11 21  2  0  0  0
 12 25  2  0  0  0
 29 26  2  0  0  0
 29 27  2  0  0  0
M  CHG  1  24  -1
M  END
> <rmsd>
0.697662294

$$$$
ZINC64843422


 29 31  0  0  0  0  0  0  0  0999 V2000
   -3.4352   -2.2400   -1.7869 C   0  0  0  0  0
   -3.2609   -0.8719   -1.5781 C   0  0  0  0  0
    0.8666    0.4565   -0.6607 C   0  0  0  0  0
   -3.0527   -2.6474    0.5637 C   0  0  0  0  0
   -0.0690    2.4439   -1.5728 C   0  0  0  0  0
    1.8335    0.4896   -1.6593 C   0  0  0  0  0
   -3.3312   -3.1278   -0.7159 C   0  0  0  0  0
   -2.8784   -1.2793    0.7724 C   0  0  0  0  0
   -0.1064    1.4485   -0.6096 C   0  0  0  0  0
   -2.9825   -0.3915   -0.2985 C   0  0  0  0  0
    1.7839    1.5277   -2.5758 C   0  0  0  0  0
    2.8631   -0.5625   -1.7114 C   0  0  0  0  0
    2.4373    3.9882   -5.7307 C   0  0  0  0  0
    3.8003    4.2162   -5.0739 C   0  0  0  0  0
    2.3301    2.7048   -6.5570 C   0  0  0  0  0
    3.8954    3.7820   -3.6114 C   0  0  0  0  0
    1.6866    1.5214   -5.8346 C   0  0  0  0  0
    4.0252    2.2750   -3.4017 C   0  0  0  0  0
    2.5975    0.8154   -4.8327 C   0  0  0  0  0
   -3.5172   -4.5908   -0.9399 C   0  0  0  0  0
   -2.5812   -0.7975    2.1548 C   0  0  0  0  0
    0.8544    2.5092   -2.5581 N   0  0  0  0  0
    2.7535    1.5675   -3.5833 N   0  0  0  0  0
   -1.1104    1.4416    0.4015 N   0  0  0  0  0
    2.6279   -1.6248   -2.3994 O   0  0  0  0  0
    3.9630   -0.3840   -1.0667 O   0  0  0  0  0
   -3.6010    1.7333    1.0538 O   0  0  0  0  0
   -2.9517    1.9922   -1.3568 O   0  0  0  0  0
   -2.7663    1.3502   -0.0696 S   0  0  0  0  0
  1  7  1  0  0  0
  2 10  1  0  0  0
  3  9  1  0  0  0
  4  8  1  0  0  0
  5 22  1  0  0  0
  6 11  1  0  0  0
  6 12  1  0  0  0
  9 24  1  0  0  0
 11 23  1  0  0  0
 12 25  1  0  0  0
 13 14  1  0  0  0
 13 15  1  0  0  0
 14 16  1  0  0  0
 15 17  1  0  0  0
 16 18  1  0  0  0
 17 19  1  0  0  0
 18 23  1  0  0  0
 19 23  1  0  0  0
 20  7  1  0  0  0
 21  8  1  0  0  0
 29 10  1  0  0  0
 29 24  1  0  0  0
  1  2  2  0  0  0
  3  6  2  0  0  0
  4  7  2  0  0  0
  5  9  2  0  0  0
  8 10  2  0  0  0
 11 22  2  0  0  0
 12 26  2  0  0  0
 29 27  2  0  0  0
 29 28  2  0  0  0
M  CHG  1  25  -1
M  END
> <rmsd>
0.512318492

$$$$
ZINC64843422


 29 31  0  0  0  0  0  0  0  0999 V2000
   -2.9517   -2.2119   -1.8676 C   0  0  0  0  0
   -2.9053   -0.8385   -1.6282 C   0  0  0  0  0
    1.0026    0.7870   -0.3136 C   0  0  0  0  0
   -2.7573   -2.6320    0.5037 C   0  0  0  0  0
    0.0023    2.7128   -1.2870 C   0  0  0  0  0
    2.0521    0.9130   -1.2169 C   0  0  0  0  0
   -2.8777   -3.1086   -0.8017 C   0  0  0  0  0
   -2.7109   -1.2586    0.7431 C   0  0  0  0  0
   -0.0457    1.6999   -0.3427 C   0  0  0  0  0
   -2.7849   -0.3618   -0.3228 C   0  0  0  0  0
    2.0062    1.9609   -2.1223 C   0  0  0  0  0
    3.1615   -0.0554   -1.1842 C   0  0  0  0  0
    2.7532    4.5223   -5.1744 C   0  0  0  0  0
    4.0275    4.8426   -4.3904 C   0  0  0  0  0
    2.8239    3.2500   -6.0215 C   0  0  0  0  0
    4.0208    4.3901   -2.9304 C   0  0  0  0  0
    2.2113    2.0073   -5.3758 C   0  0  0  0  0
    4.2486    2.8940   -2.7264 C   0  0  0  0  0
    3.0782    1.3553   -4.3010 C   0  0  0  0  0
   -2.9268   -4.5772   -1.0584 C   0  0  0  0  0
   -2.5816   -0.7809    2.1526 C   0  0  0  0  0
    1.0048    2.8673   -2.1807 N   0  0  0  0  0
    3.0586    2.0940   -3.0341 N   0  0  0  0  0
   -1.1353    1.5969    0.5699 N   0  0  0  0  0
    3.0750   -1.1198   -1.9030 O   0  0  0  0  0
    4.1797    0.1954   -0.4374 O   0  0  0  0  0
   -3.6907    1.6836    0.9894 O   0  0  0  0  0
   -2.8436    2.0363   -1.3468 O   0  0  0  0  0
   -2.7282    1.3868   -0.0552 S   0  0  0  0  0
  1  7  1  0  0  0
  2 10  1  0  0  0
  3  9  1  0  0  0
  4  8  1  0  0  0
  5 22  1  0  0  0
  6 11  1  0  0  0
  6 12  1  0  0  0
  9 24  1  0  0  0
 11 23  1  0  0  0
 12 25  1  0  0  0
 13 14  1  0  0  0
 13 15  1  0  0  0
 14 16  1  0  0  0
 15 17  1  0  0  0
 16 18  1  0  0  0
 17 19  1  0  0  0
 18 23  1  0  0  0
 19 23  1  0  0  0
 20  7  1  0  0  0
 21  8  1  0  0  0
 29 10  1  0  0  0
 29 24  1  0  0  0
  1  2  2  0  0  0
  3  6  2  0  0  0
  4  7  2  0  0  0
  5  9  2  0  0  0
  8 10  2  0  0  0
 11 22  2  0  0  0
 12 26  2  0  0  0
 29 27  2  0  0  0
 29 28  2  0  0  0
M  CHG  1  25  -1
M  END
> <rmsd>
0.691968799

$$$$
ZINC35397621


 29 31  0  0  0  0  0  0  0  0999 V2000
    0.8681    0.4572   -0.6596 C   0  0  0  0  0
   -3.3306   -3.1262   -0.6931 C   0  0  0  0  0
   -3.3973   -1.1889    0.7488 C   0  0  0  0  0
   -2.7438   -0.9506   -1.5650 C   0  0  0  0  0
   -0.0604    2.4527   -1.5611 C   0  0  0  0  0
    1.8377    0.4946   -1.6555 C   0  0  0  0  0
   -3.5705   -2.5598    0.5587 C   0  0  0  0  0
   -2.9172   -2.3216   -1.7550 C   0  0  0  0  0
   -0.1027    1.4511   -0.6045 C   0  0  0  0  0
   -2.9838   -0.3842   -0.3131 C   0  0  0  0  0
    1.7930    1.5388   -2.5652 C   0  0  0  0  0
    2.8650   -0.5596   -1.7119 C   0  0  0  0  0
    2.4603    4.0185   -5.7021 C   0  0  0  0  0
    3.8221    4.2389   -5.0403 C   0  0  0  0  0
    2.3523    2.7408   -6.5372 C   0  0  0  0  0
    3.9123    3.7949   -3.5805 C   0  0  0  0  0
    1.7042    1.5542   -5.8242 C   0  0  0  0  0
    4.0381    2.2863   -3.3804 C   0  0  0  0  0
    2.6107    0.8395   -4.8247 C   0  0  0  0  0
   -4.0122   -3.4200    1.6940 C   0  0  0  0  0
   -2.6605   -2.9273   -3.0934 C   0  0  0  0  0
    0.8656    2.5223   -2.5435 N   0  0  0  0  0
    2.7652    1.5830   -3.5699 N   0  0  0  0  0
   -1.1093    1.4399    0.4039 N   0  0  0  0  0
    2.6291   -1.6167   -2.4074 O   0  0  0  0  0
    3.9636   -0.3879   -1.0631 O   0  0  0  0  0
   -3.6009    1.7331    1.0516 O   0  0  0  0  0
   -2.9447    2.0063   -1.3555 O   0  0  0  0  0
   -2.7642    1.3554   -0.0721 S   0  0  0  0  0
  1  9  1  0  0  0
  2  8  1  0  0  0
  3  7  1  0  0  0
  4 10  1  0  0  0
  5 22  1  0  0  0
  6 11  1  0  0  0
  6 12  1  0  0  0
  9 24  1  0  0  0
 11 23  1  0  0  0
 12 25  1  0  0  0
 13 14  1  0  0  0
 13 15  1  0  0  0
 14 16  1  0  0  0
 15 17  1  0  0  0
 16 18  1  0  0  0
 17 19  1  0  0  0
 18 23  1  0  0  0
 19 23  1  0  0  0
 20  7  1  0  0  0
 21  8  1  0  0  0
 29 10  1  0  0  0
 29 24  1  0  0  0
  1  6  2  0  0  0
  2  7  2  0  0  0
  3 10  2  0  0  0
  4  8  2  0  0  0
  5  9  2  0  0  0
 11 22  2  0  0  0
 12 26  2  0  0  0
 29 27  2  0  0  0
 29 28  2  0  0  0
M  CHG  1  25  -1
M  END
> <rmsd>
0.510067761

$$$$
ZINC35397621


 29 31  0  0  0  0  0  0  0  0999 V2000
    1.0044    0.7852   -0.3095 C   0  0  0  0  0
   -2.8808   -3.1081   -0.7770 C   0  0  0  0  0
   -3.2323   -1.2078    0.6728 C   0  0  0  0  0
   -2.3867   -0.8787   -1.5664 C   0  0  0  0  0
    0.0112    2.7195   -1.2732 C   0  0  0  0  0
    2.0567    0.9146   -1.2091 C   0  0  0  0  0
   -3.2798   -2.5843    0.4526 C   0  0  0  0  0
   -2.4342   -2.2553   -1.7865 C   0  0  0  0  0
   -0.0418    1.7007   -0.3356 C   0  0  0  0  0
   -2.7858   -0.3549   -0.3367 C   0  0  0  0  0
    2.0156    1.9685   -2.1077 C   0  0  0  0  0
    3.1638   -0.0565   -1.1796 C   0  0  0  0  0
    2.7770    4.5479   -5.1411 C   0  0  0  0  0
    4.0499    4.8601   -4.3515 C   0  0  0  0  0
    2.8473    3.2809   -5.9962 C   0  0  0  0  0
    4.0380    4.3982   -2.8945 C   0  0  0  0  0
    2.2300    2.0355   -5.3603 C   0  0  0  0  0
    4.2619    2.9003   -2.6995 C   0  0  0  0  0
    3.0924    1.3745   -4.2874 C   0  0  0  0  0
   -3.7569   -3.4961    1.5319 C   0  0  0  0  0
   -2.0075   -2.8154   -3.1012 C   0  0  0  0  0
    1.0165    2.8776   -2.1631 N   0  0  0  0  0
    3.0709    2.1050   -3.0158 N   0  0  0  0  0
   -1.1341    1.5943    0.5732 N   0  0  0  0  0
    3.0769   -1.1160   -1.9055 O   0  0  0  0  0
    4.1804    0.1871   -0.4283 O   0  0  0  0  0
   -3.6905    1.6841    0.9862 O   0  0  0  0  0
   -2.8361    2.0500   -1.3453 O   0  0  0  0  0
   -2.7258    1.3919   -0.0576 S   0  0  0  0  0
  1  9  1  0  0  0
  2  8  1  0  0  0
  3  7  1  0  0  0
  4 10  1  0  0  0
  5 22  1  0  0  0
  6 11  1  0  0  0
  6 12  1  0  0  0
  9 24  1  0  0  0
 11 23  1  0  0  0
 12 25  1  0  0  0
 13 14  1  0  0  0
 13 15  1  0  0  0
 14 16  1  0  0  0
 15 17  1  0  0  0
 16 18  1  0  0  0
 17 19  1  0  0  0
 18 23  1  0  0  0
 19 23  1  0  0  0
 20  7  1  0  0  0
 21  8  1  0  0  0
 29 10  1  0  0  0
 29 24  1  0  0  0
  1  6  2  0  0  0
  2  7  2  0  0  0
  3 10  2  0  0  0
  4  8  2  0  0  0
  5  9  2  0  0  0
 11 22  2  0  0  0
 12 26  2  0  0  0
 29 27  2  0  0  0
 29 28  2  0  0  0
M  CHG  1  25  -1
M  END
> <rmsd>
0.688890457

$$$$
ZINC35397443


 29 31  0  0  0  0  0  0  0  0999 V2000
    1.0025    0.7871   -0.3134 C   0  0  0  0  0
   -2.7570   -2.6319    0.5038 C   0  0  0  0  0
   -2.9052   -0.8384   -1.6279 C   0  0  0  0  0
    0.0022    2.7128   -1.2869 C   0  0  0  0  0
    2.0519    0.9130   -1.2168 C   0  0  0  0  0
   -2.8770   -3.1085   -0.8016 C   0  0  0  0  0
   -2.7112   -1.2585    0.7433 C   0  0  0  0  0
   -2.9510   -2.2118   -1.8675 C   0  0  0  0  0
   -0.0458    1.7000   -0.3425 C   0  0  0  0  0
   -2.7852   -0.3617   -0.3226 C   0  0  0  0  0
    2.0059    1.9609   -2.1221 C   0  0  0  0  0
    3.1613   -0.0555   -1.1839 C   0  0  0  0  0
    4.2710    4.1075   -4.9425 C   0  0  0  0  0
    3.6625    3.1653   -5.9802 C   0  0  0  0  0
    5.0705    3.3806   -3.8609 C   0  0  0  0  0
    2.5829    2.2267   -5.4449 C   0  0  0  0  0
    4.2262    2.9058   -2.6768 C   0  0  0  0  0
    3.0544    1.3437   -4.2915 C   0  0  0  0  0
   -2.9243   -4.5831   -1.0336 C   0  0  0  0  0
   -2.5815   -0.7805    2.1528 C   0  0  0  0  0
   -3.0801   -2.6991   -3.2734 C   0  0  0  0  0
    1.0045    2.8673   -2.1807 N   0  0  0  0  0
    3.0592    2.0940   -3.0349 N   0  0  0  0  0
   -1.1354    1.5971    0.5701 N   0  0  0  0  0
    3.0747   -1.1198   -1.9029 O   0  0  0  0  0
    4.1795    0.1954   -0.4373 O   0  0  0  0  0
   -3.6908    1.6839    0.9896 O   0  0  0  0  0
   -2.8439    2.0364   -1.3466 O   0  0  0  0  0
   -2.7284    1.3870   -0.0550 S   0  0  0  0  0
  1  9  1  0  0  0
  2  6  1  0  0  0
  3  8  1  0  0  0
  4 22  1  0  0  0
  5 11  1  0  0  0
  5 12  1  0  0  0
  7 10  1  0  0  0
  9 24  1  0  0  0
 11 23  1  0  0  0
 12 25  1  0  0  0
 13 14  1  0  0  0
 13 15  1  0  0  0
 14 16  1  0  0  0
 15 17  1  0  0  0
 16 18  1  0  0  0
 17 23  1  0  0  0
 18 23  1  0  0  0
 19  6  1  0  0  0
 20  7  1  0  0  0
 21  8  1  0  0  0
 29 10  1  0  0  0
 29 24  1  0  0  0
  1  5  2  0  0  0
  2  7  2  0  0  0
  3 10  2  0  0  0
  4  9  2  0  0  0
  6  8  2  0  0  0
 11 22  2  0  0  0
 12 26  2  0  0  0
 29 27  2  0  0  0
 29 28  2  0  0  0
M  CHG  1  25  -1
M  END
> <rmsd>
0.692231774

$$$$
ZINC35397443


 29 31  0  0  0  0  0  0  0  0999 V2000
    0.8666    0.4568   -0.6601 C   0  0  0  0  0
   -3.0523   -2.6473    0.5638 C   0  0  0  0  0
   -3.2604   -0.8718   -1.5779 C   0  0  0  0  0
   -0.0690    2.4440   -1.5724 C   0  0  0  0  0
    1.8335    0.4899   -1.6587 C   0  0  0  0  0
   -3.3302   -3.1277   -0.7159 C   0  0  0  0  0
   -2.8786   -1.2791    0.7727 C   0  0  0  0  0
   -3.4342   -2.2399   -1.7868 C   0  0  0  0  0
   -0.1064    1.4488   -0.6091 C   0  0  0  0  0
   -2.9826   -0.3913   -0.2982 C   0  0  0  0  0
    1.7839    1.5280   -2.5751 C   0  0  0  0  0
    2.8632   -0.5622   -1.7105 C   0  0  0  0  0
    3.9340    3.4585   -5.6318 C   0  0  0  0  0
    3.1604    2.5553   -6.5912 C   0  0  0  0  0
    4.7728    2.6833   -4.6154 C   0  0  0  0  0
    2.0664    1.7104   -5.9413 C   0  0  0  0  0
    4.0088    2.2895   -3.3497 C   0  0  0  0  0
    2.5743    0.8062   -4.8202 C   0  0  0  0  0
   -3.5124   -4.5965   -0.9153 C   0  0  0  0  0
   -2.5812   -0.7971    2.1551 C   0  0  0  0  0
   -3.7313   -2.7313   -3.1655 C   0  0  0  0  0
    0.8543    2.5094   -2.5577 N   0  0  0  0  0
    2.7544    1.5678   -3.5835 N   0  0  0  0  0
   -1.1106    1.4420    0.4020 N   0  0  0  0  0
    2.6280   -1.6244   -2.3986 O   0  0  0  0  0
    3.9630   -0.3836   -1.0658 O   0  0  0  0  0
   -3.6012    1.7335    1.0540 O   0  0  0  0  0
   -2.9518    1.9923   -1.3566 O   0  0  0  0  0
   -2.7665    1.3504   -0.0693 S   0  0  0  0  0
  1  9  1  0  0  0
  2  6  1  0  0  0
  3  8  1  0  0  0
  4 22  1  0  0  0
  5 11  1  0  0  0
  5 12  1  0  0  0
  7 10  1  0  0  0
  9 24  1  0  0  0
 11 23  1  0  0  0
 12 25  1  0  0  0
 13 14  1  0  0  0
 13 15  1  0  0  0
 14 16  1  0  0  0
 15 17  1  0  0  0
 16 18  1  0  0  0
 17 23  1  0  0  0
 18 23  1  0  0  0
 19  6  1  0  0  0
 20  7  1  0  0  0
 21  8  1  0  0  0
 29 10  1  0  0  0
 29 24  1  0  0  0
  1  5  2  0  0  0
  2  7  2  0  0  0
  3 10  2  0  0  0
  4  9  2  0  0  0
  6  8  2  0  0  0
 11 22  2  0  0  0
 12 26  2  0  0  0
 29 27  2  0  0  0
 29 28  2  0  0  0
M  CHG  1  25  -1
M  END
> <rmsd>
0.512427807

$$$$
ZINC35397594


 29 31  0  0  0  0  0  0  0  0999 V2000
   -3.3329   -3.1276   -0.7143 C   0  0  0  0  0
   -3.0530   -2.6469    0.5647 C   0  0  0  0  0
    0.8674    0.4568   -0.6607 C   0  0  0  0  0
   -3.2615   -0.8722   -1.5777 C   0  0  0  0  0
   -0.0683    2.4440   -1.5728 C   0  0  0  0  0
    1.8343    0.4899   -1.6593 C   0  0  0  0  0
   -3.4371   -2.2403   -1.7857 C   0  0  0  0  0
   -2.8774   -1.2788    0.7727 C   0  0  0  0  0
   -0.1056    1.4487   -0.6096 C   0  0  0  0  0
   -2.9817   -0.3914   -0.2985 C   0  0  0  0  0
    1.7847    1.5280   -2.5758 C   0  0  0  0  0
    2.8639   -0.5622   -1.7114 C   0  0  0  0  0
    2.4379    3.9885   -5.7306 C   0  0  0  0  0
    3.8009    4.2165   -5.0738 C   0  0  0  0  0
    2.3308    2.7051   -6.5570 C   0  0  0  0  0
    3.8960    3.7824   -3.6114 C   0  0  0  0  0
    1.6874    1.5217   -5.8346 C   0  0  0  0  0
    4.0259    2.2754   -3.4017 C   0  0  0  0  0
    2.5982    0.8157   -4.8327 C   0  0  0  0  0
   -3.7368   -2.7550   -3.1532 C   0  0  0  0  0
   -2.5794   -0.7970    2.1548 C   0  0  0  0  0
    0.8551    2.5094   -2.5581 N   0  0  0  0  0
    2.7542    1.5678   -3.5833 N   0  0  0  0  0
   -1.1097    1.4417    0.4015 N   0  0  0  0  0
    2.6287   -1.6245   -2.3994 O   0  0  0  0  0
    3.9638   -0.3837   -1.0667 O   0  0  0  0  0
   -3.6003    1.7333    1.0538 O   0  0  0  0  0
   -2.9510    1.9923   -1.3568 O   0  0  0  0  0
   -2.7656    1.3502   -0.0696 S   0  0  0  0  0
  1  7  1  0  0  0
  2  8  1  0  0  0
  3  9  1  0  0  0
  4 10  1  0  0  0
  5 22  1  0  0  0
  6 11  1  0  0  0
  6 12  1  0  0  0
  9 24  1  0  0  0
 11 23  1  0  0  0
 12 25  1  0  0  0
 13 14  1  0  0  0
 13 15  1  0  0  0
 14 16  1  0  0  0
 15 17  1  0  0  0
 16 18  1  0  0  0
 17 19  1  0  0  0
 18 23  1  0  0  0
 19 23  1  0  0  0
 20  7  1  0  0  0
 21  8  1  0  0  0
 29 10  1  0  0  0
 29 24  1  0  0  0
  1  2  2  0  0  0
  3  6  2  0  0  0
  4  7  2  0  0  0
  5  9  2  0  0  0
  8 10  2  0  0  0
 11 22  2  0  0  0
 12 26  2  0  0  0
 29 27  2  0  0  0
 29 28  2  0  0  0
M  CHG  1  25  -1
M  END
> <rmsd>
0.511810124

$$$$
ZINC35397594


 29 31  0  0  0  0  0  0  0  0999 V2000
   -2.8796   -3.1087   -0.8002 C   0  0  0  0  0
   -2.7577   -2.6315    0.5048 C   0  0  0  0  0
    1.0034    0.7873   -0.3136 C   0  0  0  0  0
   -2.9060   -0.8390   -1.6278 C   0  0  0  0  0
    0.0029    2.7130   -1.2869 C   0  0  0  0  0
    2.0529    0.9133   -1.2169 C   0  0  0  0  0
   -2.9536   -2.2125   -1.8666 C   0  0  0  0  0
   -2.7101   -1.2580    0.7436 C   0  0  0  0  0
   -0.0451    1.7002   -0.3427 C   0  0  0  0  0
   -2.7842   -0.3617   -0.3227 C   0  0  0  0  0
    2.0068    1.9612   -2.1222 C   0  0  0  0  0
    3.1623   -0.0551   -1.1842 C   0  0  0  0  0
    2.7537    4.5226   -5.1744 C   0  0  0  0  0
    4.0281    4.8429   -4.3904 C   0  0  0  0  0
    2.8245    3.2503   -6.0215 C   0  0  0  0  0
    4.0214    4.3905   -2.9304 C   0  0  0  0  0
    2.2120    2.0076   -5.3757 C   0  0  0  0  0
    4.2492    2.8944   -2.7264 C   0  0  0  0  0
    3.0789    1.3556   -4.3010 C   0  0  0  0  0
   -3.0843   -2.7233   -3.2618 C   0  0  0  0  0
   -2.5798   -0.7802    2.1528 C   0  0  0  0  0
    1.0054    2.8676   -2.1807 N   0  0  0  0  0
    3.0592    2.0943   -3.0341 N   0  0  0  0  0
   -1.1346    1.5971    0.5699 N   0  0  0  0  0
    3.0758   -1.1194   -1.9030 O   0  0  0  0  0
    4.1805    0.1958   -0.4373 O   0  0  0  0  0
   -3.6900    1.6837    0.9894 O   0  0  0  0  0
   -2.8430    2.0364   -1.3467 O   0  0  0  0  0
   -2.7275    1.3869   -0.0551 S   0  0  0  0  0
  1  7  1  0  0  0
  2  8  1  0  0  0
  3  9  1  0  0  0
  4 10  1  0  0  0
  5 22  1  0  0  0
  6 11  1  0  0  0
  6 12  1  0  0  0
  9 24  1  0  0  0
 11 23  1  0  0  0
 12 25  1  0  0  0
 13 14  1  0  0  0
 13 15  1  0  0  0
 14 16  1  0  0  0
 15 17  1  0  0  0
 16 18  1  0  0  0
 17 19  1  0  0  0
 18 23  1  0  0  0
 19 23  1  0  0  0
 20  7  1  0  0  0
 21  8  1  0  0  0
 29 10  1  0  0  0
 29 24  1  0  0  0
  1  2  2  0  0  0
  3  6  2  0  0  0
  4  7  2  0  0  0
  5  9  2  0  0  0
  8 10  2  0  0  0
 11 22  2  0  0  0
 12 26  2  0  0  0
 29 27  2  0  0  0
 29 28  2  0  0  0
M  CHG  1  25  -1
M  END
> <rmsd>
0.691441119

$$$$
ZINC35397333


 29 31  0  0  0  0  0  0  0  0999 V2000
   -3.2791   -2.5847    0.4525 C   0  0  0  0  0
   -2.4331   -2.2553   -1.7864 C   0  0  0  0  0
   -3.2322   -1.2082    0.6729 C   0  0  0  0  0
   -2.3864   -0.8787   -1.5661 C   0  0  0  0  0
    1.0043    0.7849   -0.3097 C   0  0  0  0  0
    0.0111    2.7190   -1.2736 C   0  0  0  0  0
    2.0566    0.9142   -1.2094 C   0  0  0  0  0
   -2.8795   -3.1083   -0.7770 C   0  0  0  0  0
   -0.0418    1.7005   -0.3358 C   0  0  0  0  0
   -2.7858   -0.3552   -0.3364 C   0  0  0  0  0
    2.0154    1.9679   -2.1081 C   0  0  0  0  0
    3.1637   -0.0569   -1.1796 C   0  0  0  0  0
    4.0486    1.6425   -5.2295 C   0  0  0  0  0
    5.4769    2.5064   -3.3662 C   0  0  0  0  0
    2.7957    2.0540   -4.4566 C   0  0  0  0  0
    4.2205    2.9205   -2.6017 C   0  0  0  0  0
    5.2456    2.5324   -4.8806 C   0  0  0  0  0
    6.4967    2.0801   -5.6296 C   0  0  0  0  0
   -1.5350   -5.1780   -1.2892 C   0  0  0  0  0
   -3.8958   -4.9642   -2.1471 C   0  0  0  0  0
   -2.9274   -4.5801   -1.0122 C   0  0  0  0  0
    1.0164    2.8770   -2.1636 N   0  0  0  0  0
    3.0715    2.1044   -3.0170 N   0  0  0  0  0
   -1.1342    1.5942    0.5732 N   0  0  0  0  0
    3.0767   -1.1165   -1.9056 O   0  0  0  0  0
    4.1804    0.1867   -0.4285 O   0  0  0  0  0
   -3.6904    1.6840    0.9862 O   0  0  0  0  0
   -2.8362    2.0495   -1.3454 O   0  0  0  0  0
   -2.7258    1.3916   -0.0576 S   0  0  0  0  0
  1  8  1  0  0  0
  2  4  1  0  0  0
  3 10  1  0  0  0
  5  9  1  0  0  0
  6 22  1  0  0  0
  7 11  1  0  0  0
  7 12  1  0  0  0
  9 24  1  0  0  0
 11 23  1  0  0  0
 12 25  1  0  0  0
 13 15  1  0  0  0
 13 17  1  0  0  0
 14 16  1  0  0  0
 14 17  1  0  0  0
 15 23  1  0  0  0
 16 23  1  0  0  0
 17 18  1  0  0  0
 19 21  1  0  0  0
 20 21  1  0  0  0
 21  8  1  0  0  0
 29 10  1  0  0  0
 29 24  1  0  0  0
  1  3  2  0  0  0
  2  8  2  0  0  0
  4 10  2  0  0  0
  5  7  2  0  0  0
  6  9  2  0  0  0
 11 22  2  0  0  0
 12 26  2  0  0  0
 29 27  2  0  0  0
 29 28  2  0  0  0
M  CHG  1  25  -1
M  END
> <rmsd>
0.689315796

$$$$
ZINC35397333


 29 31  0  0  0  0  0  0  0  0999 V2000
   -3.5699   -2.5603    0.5587 C   0  0  0  0  0
   -2.9161   -2.3216   -1.7549 C   0  0  0  0  0
   -3.3972   -1.1893    0.7489 C   0  0  0  0  0
   -2.7435   -0.9506   -1.5647 C   0  0  0  0  0
    0.8680    0.4571   -0.6597 C   0  0  0  0  0
   -0.0607    2.4523   -1.5614 C   0  0  0  0  0
    1.8375    0.4944   -1.6557 C   0  0  0  0  0
   -3.3293   -3.1265   -0.6932 C   0  0  0  0  0
   -0.1028    1.4510   -0.6047 C   0  0  0  0  0
   -2.9839   -0.3845   -0.3127 C   0  0  0  0  0
    1.7926    1.5384   -2.5655 C   0  0  0  0  0
    2.8648   -0.5597   -1.7118 C   0  0  0  0  0
    3.4915    1.0222   -5.8563 C   0  0  0  0  0
    5.1510    1.7921   -4.1500 C   0  0  0  0  0
    2.3522    1.5384   -4.9775 C   0  0  0  0  0
    4.0077    2.3109   -3.2794 C   0  0  0  0  0
    4.7806    1.8198   -5.6365 C   0  0  0  0  0
    5.9173    1.2635   -6.4906 C   0  0  0  0  0
   -2.2015   -5.3000   -1.2912 C   0  0  0  0  0
   -4.6093   -4.9120   -1.9291 C   0  0  0  0  0
   -3.5117   -4.5925   -0.8964 C   0  0  0  0  0
    0.8653    2.5219   -2.5439 N   0  0  0  0  0
    2.7656    1.5825   -3.5711 N   0  0  0  0  0
   -1.1095    1.4398    0.4039 N   0  0  0  0  0
    2.6289   -1.6170   -2.4073 O   0  0  0  0  0
    3.9635   -0.3881   -1.0632 O   0  0  0  0  0
   -3.6009    1.7330    1.0516 O   0  0  0  0  0
   -2.9449    2.0059   -1.3556 O   0  0  0  0  0
   -2.7643    1.3552   -0.0721 S   0  0  0  0  0
  1  8  1  0  0  0
  2  4  1  0  0  0
  3 10  1  0  0  0
  5  9  1  0  0  0
  6 22  1  0  0  0
  7 11  1  0  0  0
  7 12  1  0  0  0
  9 24  1  0  0  0
 11 23  1  0  0  0
 12 25  1  0  0  0
 13 15  1  0  0  0
 13 17  1  0  0  0
 14 16  1  0  0  0
 14 17  1  0  0  0
 15 23  1  0  0  0
 16 23  1  0  0  0
 17 18  1  0  0  0
 19 21  1  0  0  0
 20 21  1  0  0  0
 21  8  1  0  0  0
 29 10  1  0  0  0
 29 24  1  0  0  0
  1  3  2  0  0  0
  2  8  2  0  0  0
  4 10  2  0  0  0
  5  7  2  0  0  0
  6  9  2  0  0  0
 11 22  2  0  0  0
 12 26  2  0  0  0
 29 27  2  0  0  0
 29 28  2  0  0  0
M  CHG  1  25  -1
M  END
> <rmsd>
0.510174572

$$$$
ZINC35397430


 29 31  0  0  0  0  0  0  0  0999 V2000
   -3.2796   -2.5849    0.4517 C   0  0  0  0  0
   -2.4338   -2.2553   -1.7872 C   0  0  0  0  0
   -3.2327   -1.2084    0.6722 C   0  0  0  0  0
   -2.3867   -0.8787   -1.5667 C   0  0  0  0  0
    1.0041    0.7845   -0.3101 C   0  0  0  0  0
    0.0110    2.7188   -1.2738 C   0  0  0  0  0
    2.0563    0.9138   -1.2097 C   0  0  0  0  0
   -2.8801   -3.1084   -0.7779 C   0  0  0  0  0
   -0.0420    1.7001   -0.3362 C   0  0  0  0  0
   -2.7863   -0.3553   -0.3371 C   0  0  0  0  0
    2.0152    1.9676   -2.1084 C   0  0  0  0  0
    3.1633   -0.0575   -1.1801 C   0  0  0  0  0
    4.2931    4.1271   -4.9086 C   0  0  0  0  0
    3.6854    3.1931   -5.9539 C   0  0  0  0  0
    5.0879    3.3914   -3.8295 C   0  0  0  0  0
    2.6020    2.2536   -5.4277 C   0  0  0  0  0
    4.2393    2.9109   -2.6508 C   0  0  0  0  0
    3.0683    1.3621   -4.2788 C   0  0  0  0  0
   -1.5358   -5.1781   -1.2903 C   0  0  0  0  0
   -3.8965   -4.9639   -2.1482 C   0  0  0  0  0
   -2.9282   -4.5801   -1.0132 C   0  0  0  0  0
    1.0162    2.8767   -2.1639 N   0  0  0  0  0
    3.0714    2.1041   -3.0174 N   0  0  0  0  0
   -1.1344    1.5939    0.5728 N   0  0  0  0  0
    3.0763   -1.1169   -1.9061 O   0  0  0  0  0
    4.1800    0.1861   -0.4290 O   0  0  0  0  0
   -3.6907    1.6839    0.9858 O   0  0  0  0  0
   -2.8365    2.0495   -1.3457 O   0  0  0  0  0
   -2.7261    1.3915   -0.0580 S   0  0  0  0  0
  1  8  1  0  0  0
  2  4  1  0  0  0
  3 10  1  0  0  0
  5  9  1  0  0  0
  6 22  1  0  0  0
  7 11  1  0  0  0
  7 12  1  0  0  0
  9 24  1  0  0  0
 11 23  1  0  0  0
 12 25  1  0  0  0
 13 14  1  0  0  0
 13 15  1  0  0  0
 14 16  1  0  0  0
 15 17  1  0  0  0
 16 18  1  0  0  0
 17 23  1  0  0  0
 18 23  1  0  0  0
 19 21  1  0  0  0
 20 21  1  0  0  0
 21  8  1  0  0  0
 29 10  1  0  0  0
 29 24  1  0  0  0
  1  3  2  0  0  0
  2  8  2  0  0  0
  4 10  2  0  0  0
  5  7  2  0  0  0
  6  9  2  0  0  0
 11 22  2  0  0  0
 12 26  2  0  0  0
 29 27  2  0  0  0
 29 28  2  0  0  0
M  CHG  1  25  -1
M  END
> <rmsd>
0.6894449

$$$$
ZINC35397430


 29 31  0  0  0  0  0  0  0  0999 V2000
   -3.5704   -2.5604    0.5579 C   0  0  0  0  0
   -2.9164   -2.3216   -1.7556 C   0  0  0  0  0
   -3.3977   -1.1895    0.7483 C   0  0  0  0  0
   -2.7436   -0.9507   -1.5652 C   0  0  0  0  0
    0.8678    0.4568   -0.6597 C   0  0  0  0  0
   -0.0607    2.4521   -1.5614 C   0  0  0  0  0
    1.8374    0.4941   -1.6556 C   0  0  0  0  0
   -3.3297   -3.1265   -0.6940 C   0  0  0  0  0
   -0.1029    1.4507   -0.6048 C   0  0  0  0  0
   -2.9843   -0.3846   -0.3133 C   0  0  0  0  0
    1.7926    1.5382   -2.5653 C   0  0  0  0  0
    2.8647   -0.5601   -1.7117 C   0  0  0  0  0
    3.9552    3.4836   -5.6037 C   0  0  0  0  0
    3.1820    2.5887   -6.5710 C   0  0  0  0  0
    4.7895    2.6998   -4.5903 C   0  0  0  0  0
    2.0843    1.7421   -5.9294 C   0  0  0  0  0
    4.0214    2.2996   -3.3292 C   0  0  0  0  0
    2.5872    0.8293   -4.8131 C   0  0  0  0  0
   -2.2020   -5.3000   -1.2920 C   0  0  0  0  0
   -4.6097   -4.9119   -1.9302 C   0  0  0  0  0
   -3.5122   -4.5925   -0.8974 C   0  0  0  0  0
    0.8653    2.5217   -2.5438 N   0  0  0  0  0
    2.7659    1.5823   -3.5709 N   0  0  0  0  0
   -1.1097    1.4396    0.4037 N   0  0  0  0  0
    2.6288   -1.6172   -2.4073 O   0  0  0  0  0
    3.9633   -0.3884   -1.0630 O   0  0  0  0  0
   -3.6013    1.7329    1.0512 O   0  0  0  0  0
   -2.9451    2.0059   -1.3559 O   0  0  0  0  0
   -2.7646    1.3551   -0.0725 S   0  0  0  0  0
  1  8  1  0  0  0
  2  4  1  0  0  0
  3 10  1  0  0  0
  5  9  1  0  0  0
  6 22  1  0  0  0
  7 11  1  0  0  0
  7 12  1  0  0  0
  9 24  1  0  0  0
 11 23  1  0  0  0
 12 25  1  0  0  0
 13 14  1  0  0  0
 13 15  1  0  0  0
 14 16  1  0  0  0
 15 17  1  0  0  0
 16 18  1  0  0  0
 17 23  1  0  0  0
 18 23  1  0  0  0
 19 21  1  0  0  0
 20 21  1  0  0  0
 21  8  1  0  0  0
 29 10  1  0  0  0
 29 24  1  0  0  0
  1  3  2  0  0  0
  2  8  2  0  0  0
  4 10  2  0  0  0
  5  7  2  0  0  0
  6  9  2  0  0  0
 11 22  2  0  0  0
 12 26  2  0  0  0
 29 27  2  0  0  0
 29 28  2  0  0  0
M  CHG  1  25  -1
M  END
> <rmsd>
0.510342658

$$$$
ZINC35397342


 29 31  0  0  0  0  0  0  0  0999 V2000
    0.8671    0.4568   -0.6602 C   0  0  0  0  0
   -3.0515   -2.6473    0.5644 C   0  0  0  0  0
   -3.2599   -0.8718   -1.5774 C   0  0  0  0  0
   -0.0686    2.4439   -1.5725 C   0  0  0  0  0
    1.8339    0.4899   -1.6589 C   0  0  0  0  0
   -3.3296   -3.1277   -0.7152 C   0  0  0  0  0
   -2.8778   -1.2791    0.7732 C   0  0  0  0  0
   -3.4338   -2.2400   -1.7861 C   0  0  0  0  0
   -0.1058    1.4488   -0.6092 C   0  0  0  0  0
   -2.9819   -0.3914   -0.2976 C   0  0  0  0  0
    1.7842    1.5278   -2.5754 C   0  0  0  0  0
    2.8636   -0.5622   -1.7108 C   0  0  0  0  0
    3.4758    0.9940   -5.8672 C   0  0  0  0  0
    5.1379    1.7790   -4.1703 C   0  0  0  0  0
    2.3376    1.5133   -4.9889 C   0  0  0  0  0
    3.9957    2.3008   -3.3001 C   0  0  0  0  0
    4.7637    1.7961   -5.6560 C   0  0  0  0  0
   -3.5118   -4.5966   -0.9145 C   0  0  0  0  0
   -2.5803   -0.7970    2.1556 C   0  0  0  0  0
   -3.7310   -2.7316   -3.1649 C   0  0  0  0  0
    5.8994    1.2368   -6.5093 C   0  0  0  0  0
    0.8547    2.5093   -2.5579 N   0  0  0  0  0
    2.7545    1.5676   -3.5838 N   0  0  0  0  0
   -1.1099    1.4419    0.4021 N   0  0  0  0  0
    2.6283   -1.6246   -2.3988 O   0  0  0  0  0
    3.9636   -0.3837   -1.0662 O   0  0  0  0  0
   -3.6004    1.7335    1.0544 O   0  0  0  0  0
   -2.9512    1.9922   -1.3563 O   0  0  0  0  0
   -2.7658    1.3503   -0.0690 S   0  0  0  0  0
  1  9  1  0  0  0
  2  6  1  0  0  0
  3  8  1  0  0  0
  4 22  1  0  0  0
  5 11  1  0  0  0
  5 12  1  0  0  0
  7 10  1  0  0  0
  9 24  1  0  0  0
 11 23  1  0  0  0
 12 25  1  0  0  0
 13 15  1  0  0  0
 13 17  1  0  0  0
 14 16  1  0  0  0
 14 17  1  0  0  0
 15 23  1  0  0  0
 16 23  1  0  0  0
 17 21  1  0  0  0
 18  6  1  0  0  0
 19  7  1  0  0  0
 20  8  1  0  0  0
 29 10  1  0  0  0
 29 24  1  0  0  0
  1  5  2  0  0  0
  2  7  2  0  0  0
  3 10  2  0  0  0
  4  9  2  0  0  0
  6  8  2  0  0  0
 11 22  2  0  0  0
 12 26  2  0  0  0
 29 27  2  0  0  0
 29 28  2  0  0  0
M  CHG  1  25  -1
M  END
> <rmsd>
0.512521327

$$$$
ZINC35397342


 29 31  0  0  0  0  0  0  0  0999 V2000
    1.0031    0.7872   -0.3131 C   0  0  0  0  0
   -2.7562   -2.6318    0.5045 C   0  0  0  0  0
   -2.9044   -0.8385   -1.6274 C   0  0  0  0  0
    0.0028    2.7128   -1.2867 C   0  0  0  0  0
    2.0526    0.9131   -1.2165 C   0  0  0  0  0
   -2.8762   -3.1085   -0.8008 C   0  0  0  0  0
   -2.7104   -1.2584    0.7440 C   0  0  0  0  0
   -2.9503   -2.2119   -1.8668 C   0  0  0  0  0
   -0.0452    1.7002   -0.3422 C   0  0  0  0  0
   -2.7844   -0.3617   -0.3219 C   0  0  0  0  0
    2.0065    1.9609   -2.1219 C   0  0  0  0  0
    3.1620   -0.0553   -1.1835 C   0  0  0  0  0
    4.0318    1.6200   -5.2467 C   0  0  0  0  0
    5.4632    2.4993   -3.3930 C   0  0  0  0  0
    2.7801    2.0337   -4.4730 C   0  0  0  0  0
    4.2080    2.9153   -2.6278 C   0  0  0  0  0
    5.2277    2.5149   -4.9069 C   0  0  0  0  0
   -2.9234   -4.5832   -1.0328 C   0  0  0  0  0
   -2.5807   -0.7804    2.1534 C   0  0  0  0  0
   -3.0793   -2.6994   -3.2727 C   0  0  0  0  0
    6.4778    2.0607   -5.6564 C   0  0  0  0  0
    1.0052    2.8673   -2.1805 N   0  0  0  0  0
    3.0598    2.0940   -3.0346 N   0  0  0  0  0
   -1.1348    1.5972    0.5705 N   0  0  0  0  0
    3.0755   -1.1197   -1.9024 O   0  0  0  0  0
    4.1803    0.1955   -0.4369 O   0  0  0  0  0
   -3.6900    1.6839    0.9900 O   0  0  0  0  0
   -2.8431    2.0363   -1.3463 O   0  0  0  0  0
   -2.7277    1.3869   -0.0546 S   0  0  0  0  0
  1  9  1  0  0  0
  2  6  1  0  0  0
  3  8  1  0  0  0
  4 22  1  0  0  0
  5 11  1  0  0  0
  5 12  1  0  0  0
  7 10  1  0  0  0
  9 24  1  0  0  0
 11 23  1  0  0  0
 12 25  1  0  0  0
 13 15  1  0  0  0
 13 17  1  0  0  0
 14 16  1  0  0  0
 14 17  1  0  0  0
 15 23  1  0  0  0
 16 23  1  0  0  0
 17 21  1  0  0  0
 18  6  1  0  0  0
 19  7  1  0  0  0
 20  8  1  0  0  0
 29 10  1  0  0  0
 29 24  1  0  0  0
  1  5  2  0  0  0
  2  7  2  0  0  0
  3 10  2  0  0  0
  4  9  2  0  0  0
  6  8  2  0  0  0
 11 22  2  0  0  0
 12 26  2  0  0  0
 29 27  2  0  0  0
 29 28  2  0  0  0
M  CHG  1  25  -1
M  END
> <rmsd>
0.692394137

$$$$
ZINC16924857


 29 31  0  0  0  0  0  0  0  0999 V2000
   -4.2905   -2.8054   -1.4975 C   0  0  0  0  0
   -4.2001   -1.4379   -1.7573 C   0  0  0  0  0
    2.2742   -1.1745    0.1953 C   0  0  0  0  0
   -3.8881   -3.3084   -0.2603 C   0  0  0  0  0
    1.4229   -1.1355    1.2995 C   0  0  0  0  0
   -3.3049   -1.0764    0.4574 C   0  0  0  0  0
    1.1554    0.7538   -0.7356 C   0  0  0  0  0
   -3.7074   -0.5735   -0.7798 C   0  0  0  0  0
    0.3041    0.7929    0.3686 C   0  0  0  0  0
    2.1405   -0.2299   -0.8223 C   0  0  0  0  0
   -3.3954   -2.4439    0.7172 C   0  0  0  0  0
    0.4378   -0.1518    1.3862 C   0  0  0  0  0
   -3.7365    1.7877   -0.0275 C   0  0  0  0  0
   -3.4138    1.3227   -2.3349 C   0  0  0  0  0
   -0.9498    2.8047   -0.4814 C   0  0  0  0  0
   -3.4529    3.1858   -0.5250 C   0  0  0  0  0
   -3.1223   -4.3429    2.1226 C   0  0  0  0  0
   -2.1075    3.6735   -0.0129 C   0  0  0  0  0
   -3.6141    0.8374   -1.0481 N   0  0  0  0  0
   -0.6901    1.7973    0.4434 N   0  0  0  0  0
    3.0083   -0.2695   -1.9457 N   0  0  0  0  0
    3.8880   -1.1622   -2.0031 O   0  0  0  0  0
   -4.0541    1.5962    1.1441 O   0  0  0  0  0
   -3.1883    0.7152   -3.3711 O   0  0  0  0  0
   -0.3659    3.0140   -1.5395 O   0  0  0  0  0
    2.8711    0.5891   -2.8504 O   0  0  0  0  0
   -0.3838   -0.1310    2.4734 O   0  0  0  0  0
   -3.0027   -2.9350    1.9244 O   0  0  0  0  0
   -3.4525    3.0771   -2.3238 S   0  0  0  0  0
  1  2  1  0  0  0
  3 10  1  0  0  0
  4 11  1  0  0  0
  5 12  1  0  0  0
  6  8  1  0  0  0
  7  9  1  0  0  0
  8 19  1  0  0  0
  9 20  1  0  0  0
 10 21  1  0  0  0
 11 28  1  0  0  0
 12 27  1  0  0  0
 13 19  1  0  0  0
 14 19  1  0  0  0
 14 29  1  0  0  0
 15 20  1  0  0  0
 16 13  1  0  0  0
 16 18  1  0  0  0
 16 29  1  0  0  0
 17 28  1  0  0  0
 18 15  1  0  0  0
 21 22  1  0  0  0
  1  4  2  0  0  0
  2  8  2  0  0  0
  3  5  2  0  0  0
  6 11  2  0  0  0
  7 10  2  0  0  0
  9 12  2  0  0  0
 13 23  2  0  0  0
 14 24  2  0  0  0
 15 25  2  0  0  0
 21 26  2  0  0  0
M  CHG  2  21   1  22  -1
M  END
> <rmsd>
0.400571942

$$$$
ZINC16925024


 29 31  0  0  0  0  0  0  0  0999 V2000
   -3.3048   -1.0763    0.4572 C   0  0  0  0  0
   -4.1994   -1.4385   -1.7577 C   0  0  0  0  0
    2.2743   -1.1749    0.1948 C   0  0  0  0  0
   -3.3947   -2.4438    0.7171 C   0  0  0  0  0
   -4.2893   -2.8059   -1.4978 C   0  0  0  0  0
    1.4230   -1.1358    1.2990 C   0  0  0  0  0
    1.1555    0.7534   -0.7361 C   0  0  0  0  0
   -3.7073   -0.5737   -0.7802 C   0  0  0  0  0
    0.3043    0.7926    0.3681 C   0  0  0  0  0
    2.1407   -0.2303   -0.8228 C   0  0  0  0  0
   -3.8869   -3.3086   -0.2604 C   0  0  0  0  0
    0.4380   -0.1521    1.3857 C   0  0  0  0  0
   -3.7363    1.7875   -0.0280 C   0  0  0  0  0
   -3.4137    1.3225   -2.3353 C   0  0  0  0  0
   -0.9496    2.8044   -0.4819 C   0  0  0  0  0
   -3.4526    3.1856   -0.5255 C   0  0  0  0  0
   -3.5461   -5.0888    1.2793 C   0  0  0  0  0
   -2.1072    3.6733   -0.0134 C   0  0  0  0  0
   -3.6140    0.8372   -1.0485 N   0  0  0  0  0
   -0.6899    1.7971    0.4429 N   0  0  0  0  0
    3.0084   -0.2699   -1.9462 N   0  0  0  0  0
    3.8881   -1.1627   -2.0037 O   0  0  0  0  0
   -4.0539    1.5960    1.1437 O   0  0  0  0  0
   -3.1882    0.7150   -3.3715 O   0  0  0  0  0
   -0.3657    3.0137   -1.5401 O   0  0  0  0  0
    2.8712    0.5886   -2.8509 O   0  0  0  0  0
   -0.3836   -0.1312    2.4730 O   0  0  0  0  0
   -3.9746   -4.6428   -0.0066 O   0  0  0  0  0
   -3.4523    3.0769   -2.3242 S   0  0  0  0  0
  1  8  1  0  0  0
  2  5  1  0  0  0
  3 10  1  0  0  0
  4 11  1  0  0  0
  6 12  1  0  0  0
  7  9  1  0  0  0
  8 19  1  0  0  0
  9 20  1  0  0  0
 10 21  1  0  0  0
 11 28  1  0  0  0
 12 27  1  0  0  0
 13 19  1  0  0  0
 14 19  1  0  0  0
 14 29  1  0  0  0
 15 20  1  0  0  0
 16 13  1  0  0  0
 16 18  1  0  0  0
 16 29  1  0  0  0
 17 28  1  0  0  0
 18 15  1  0  0  0
 21 22  1  0  0  0
  1  4  2  0  0  0
  2  8  2  0  0  0
  3  6  2  0  0  0
  5 11  2  0  0  0
  7 10  2  0  0  0
  9 12  2  0  0  0
 13 23  2  0  0  0
 14 24  2  0  0  0
 15 25  2  0  0  0
 21 26  2  0  0  0
M  CHG  2  21   1  22  -1
M  END
> <rmsd>
0.400369704

$$$$
ZINC16924857


 29 31  0  0  0  0  0  0  0  0999 V2000
   -3.3956   -2.4432    0.7173 C   0  0  0  0  0
   -3.3052   -1.0758    0.4571 C   0  0  0  0  0
    2.2740   -1.1745    0.1947 C   0  0  0  0  0
   -3.8883   -3.3081   -0.2598 C   0  0  0  0  0
    1.4226   -1.1354    1.2989 C   0  0  0  0  0
   -4.2005   -1.4382   -1.7575 C   0  0  0  0  0
    1.1551    0.7539   -0.7362 C   0  0  0  0  0
   -3.7077   -0.5733   -0.7804 C   0  0  0  0  0
    0.3038    0.7930    0.3680 C   0  0  0  0  0
    2.1403   -0.2298   -0.8229 C   0  0  0  0  0
   -4.2908   -2.8056   -1.4972 C   0  0  0  0  0
    0.4376   -0.1517    1.3856 C   0  0  0  0  0
   -3.7367    1.7878   -0.0281 C   0  0  0  0  0
   -3.4141    1.3229   -2.3354 C   0  0  0  0  0
   -0.9500    2.8048   -0.4820 C   0  0  0  0  0
   -3.4531    3.1860   -0.5255 C   0  0  0  0  0
   -5.1652   -3.0693   -3.6931 C   0  0  0  0  0
   -2.1077    3.6737   -0.0135 C   0  0  0  0  0
   -3.6144    0.8376   -1.0486 N   0  0  0  0  0
   -0.6903    1.7975    0.4428 N   0  0  0  0  0
    3.0080   -0.2694   -1.9463 N   0  0  0  0  0
    3.8878   -1.1622   -2.0037 O   0  0  0  0  0
   -4.0544    1.5963    1.1435 O   0  0  0  0  0
   -3.1885    0.7154   -3.3716 O   0  0  0  0  0
   -0.3662    3.0141   -1.5401 O   0  0  0  0  0
    2.8708    0.5892   -2.8510 O   0  0  0  0  0
   -0.3840   -0.1309    2.4729 O   0  0  0  0  0
   -4.7717   -3.6498   -2.4506 O   0  0  0  0  0
   -3.4527    3.0773   -2.3243 S   0  0  0  0  0
  1  2  1  0  0  0
  3 10  1  0  0  0
  4 11  1  0  0  0
  5 12  1  0  0  0
  6  8  1  0  0  0
  7  9  1  0  0  0
  8 19  1  0  0  0
  9 20  1  0  0  0
 10 21  1  0  0  0
 11 28  1  0  0  0
 12 27  1  0  0  0
 13 19  1  0  0  0
 14 19  1  0  0  0
 14 29  1  0  0  0
 15 20  1  0  0  0
 16 13  1  0  0  0
 16 18  1  0  0  0
 16 29  1  0  0  0
 17 28  1  0  0  0
 18 15  1  0  0  0
 21 22  1  0  0  0
  1  4  2  0  0  0
  2  8  2  0  0  0
  3  5  2  0  0  0
  6 11  2  0  0  0
  7 10  2  0  0  0
  9 12  2  0  0  0
 13 23  2  0  0  0
 14 24  2  0  0  0
 15 25  2  0  0  0
 21 26  2  0  0  0
M  CHG  2  21   1  22  -1
M  END
> <rmsd>
0.400651425

$$$$
ZINC58009125


 29 31  0  0  0  0  0  0  0  0999 V2000
   -3.5422   -2.5644    0.5410 C   0  0  0  0  0
   -2.9115   -2.3077   -1.7771 C   0  0  0  0  0
    0.8690    2.5254   -2.5709 C   0  0  0  0  0
   -0.1069    2.5019   -1.5747 C   0  0  0  0  0
   -3.3752   -1.1938    0.7384 C   0  0  0  0  0
   -2.7445   -0.9370   -1.5798 C   0  0  0  0  0
    0.8590    0.4778   -0.6764 C   0  0  0  0  0
   -3.3103   -3.1215   -0.7167 C   0  0  0  0  0
    1.8348    0.5012   -1.6728 C   0  0  0  0  0
    1.8398    1.5250   -2.6200 C   0  0  0  0  0
   -0.1120    1.4781   -0.6273 C   0  0  0  0  0
   -2.9764   -0.3800   -0.3220 C   0  0  0  0  0
   -3.4847   -4.5505   -0.9221 C   0  0  0  0  0
    2.8498   -0.5687   -1.7020 C   0  0  0  0  0
    4.0529    2.2971   -3.3464 C   0  0  0  0  0
    2.3964    1.5205   -5.0340 C   0  0  0  0  0
    5.1861    1.7882   -4.2270 C   0  0  0  0  0
    3.5340    1.0178   -5.9136 C   0  0  0  0  0
   -3.2315   -5.4554    0.2486 C   0  0  0  0  0
    5.8834    1.4913   -6.6032 C   0  0  0  0  0
    2.8102    1.5666   -3.6279 N   0  0  0  0  0
   -1.1111    1.4544    0.3923 N   0  0  0  0  0
    4.7621    1.8574   -5.6721 N   0  0  0  0  0
    2.6055   -1.6320   -2.3833 O   0  0  0  0  0
   -3.8203   -5.0756   -1.9860 O   0  0  0  0  0
    3.9428   -0.3998   -1.0448 O   0  0  0  0  0
   -3.5969    1.7230    1.0629 O   0  0  0  0  0
   -2.9649    2.0179   -1.3481 O   0  0  0  0  0
   -2.7677    1.3596   -0.0711 S   0  0  0  0  0
  1  8  1  0  0  0
  2  6  1  0  0  0
  3 10  1  0  0  0
  4 11  1  0  0  0
  5 12  1  0  0  0
  7  9  1  0  0  0
  8 13  1  0  0  0
  9 14  1  0  0  0
 10 21  1  0  0  0
 11 22  1  0  0  0
 14 24  1  0  0  0
 15 17  1  0  0  0
 15 21  1  0  0  0
 16 18  1  0  0  0
 16 21  1  0  0  0
 17 23  1  0  0  0
 18 23  1  0  0  0
 19 13  1  0  0  0
 20 23  1  0  0  0
 29 12  1  0  0  0
 29 22  1  0  0  0
  1  5  2  0  0  0
  2  8  2  0  0  0
  3  4  2  0  0  0
  6 12  2  0  0  0
  7 11  2  0  0  0
  9 10  2  0  0  0
 13 25  2  0  0  0
 14 26  2  0  0  0
 29 27  2  0  0  0
 29 28  2  0  0  0
M  CHG  2  23   1  24  -1
M  END
> <rmsd>
0.524867415

$$$$
ZINC58009125


 29 31  0  0  0  0  0  0  0  0999 V2000
   -3.2472   -2.5870    0.4350 C   0  0  0  0  0
   -2.4259   -2.2394   -1.8104 C   0  0  0  0  0
    1.0211    2.8846   -2.1904 C   0  0  0  0  0
   -0.0383    2.7675   -1.2907 C   0  0  0  0  0
   -3.2073   -1.2115    0.6626 C   0  0  0  0  0
   -2.3860   -0.8637   -1.5828 C   0  0  0  0  0
    0.9957    0.8074   -0.3284 C   0  0  0  0  0
   -2.8564   -3.1010   -0.8015 C   0  0  0  0  0
    2.0551    0.9246   -1.2282 C   0  0  0  0  0
    2.0678    1.9632   -2.1592 C   0  0  0  0  0
   -0.0511    1.7289   -0.3596 C   0  0  0  0  0
   -2.7768   -0.3498   -0.3463 C   0  0  0  0  0
   -2.8983   -4.5352   -1.0385 C   0  0  0  0  0
    3.1492   -0.0632   -1.1738 C   0  0  0  0  0
    4.2714    2.9169   -2.6653 C   0  0  0  0  0
    2.8449    2.0464   -4.5099 C   0  0  0  0  0
    5.5179    2.5133   -3.4410 C   0  0  0  0  0
    4.0953    1.6493   -5.2842 C   0  0  0  0  0
   -2.6848   -5.4395    0.1405 C   0  0  0  0  0
    6.4542    2.3152   -5.7443 C   0  0  0  0  0
    3.1213    2.0981   -3.0707 N   0  0  0  0  0
   -1.1357    1.6094    0.5611 N   0  0  0  0  0
    5.2259    2.5764   -4.9188 N   0  0  0  0  0
    3.0534   -1.1293   -1.8871 O   0  0  0  0  0
   -3.0913   -5.0647   -2.1351 O   0  0  0  0  0
    4.1597    0.1772   -0.4149 O   0  0  0  0  0
   -3.6865    1.6730    0.9978 O   0  0  0  0  0
   -2.8582    2.0605   -1.3396 O   0  0  0  0  0
   -2.7295    1.3957   -0.0572 S   0  0  0  0  0
  1  8  1  0  0  0
  2  6  1  0  0  0
  3 10  1  0  0  0
  4 11  1  0  0  0
  5 12  1  0  0  0
  7  9  1  0  0  0
  8 13  1  0  0  0
  9 14  1  0  0  0
 10 21  1  0  0  0
 11 22  1  0  0  0
 14 24  1  0  0  0
 15 17  1  0  0  0
 15 21  1  0  0  0
 16 18  1  0  0  0
 16 21  1  0  0  0
 17 23  1  0  0  0
 18 23  1  0  0  0
 19 13  1  0  0  0
 20 23  1  0  0  0
 29 12  1  0  0  0
 29 22  1  0  0  0
  1  5  2  0  0  0
  2  8  2  0  0  0
  3  4  2  0  0  0
  6 12  2  0  0  0
  7 11  2  0  0  0
  9 10  2  0  0  0
 13 25  2  0  0  0
 14 26  2  0  0  0
 29 27  2  0  0  0
 29 28  2  0  0  0
M  CHG  2  23   1  24  -1
M  END
> <rmsd>
0.705542564

$$$$
ZINC32962168


 29 31  0  0  0  0  0  0  0  0999 V2000
    1.0216    2.8844   -2.1891 C   0  0  0  0  0
   -0.0378    2.7673   -1.2895 C   0  0  0  0  0
   -2.4210   -2.2377   -1.8109 C   0  0  0  0  0
   -3.2444   -2.5880    0.4333 C   0  0  0  0  0
   -2.3841   -0.8621   -1.5826 C   0  0  0  0  0
   -3.2075   -1.2125    0.6616 C   0  0  0  0  0
    0.9955    0.8066   -0.3276 C   0  0  0  0  0
    2.0550    0.9237   -1.2273 C   0  0  0  0  0
    2.0681    1.9626   -2.1580 C   0  0  0  0  0
   -0.0510    1.7284   -0.3588 C   0  0  0  0  0
   -2.8512   -3.1007   -0.8029 C   0  0  0  0  0
   -2.7773   -0.3495   -0.3464 C   0  0  0  0  0
    3.1489   -0.0643   -1.1731 C   0  0  0  0  0
    2.8222    4.5365   -5.1978 C   0  0  0  0  0
    4.0970    4.8501   -4.4118 C   0  0  0  0  0
    2.8904    3.2680   -6.0508 C   0  0  0  0  0
    4.0886    4.3909   -2.9539 C   0  0  0  0  0
    2.2746    2.0237   -5.4112 C   0  0  0  0  0
    4.3129    2.8934   -2.7568 C   0  0  0  0  0
    3.1397    1.3647   -4.3392 C   0  0  0  0  0
   -2.4707   -4.8990   -2.3119 C   0  0  0  0  0
    3.1211    2.0974   -3.0689 N   0  0  0  0  0
   -1.1358    1.6089    0.5617 N   0  0  0  0  0
    3.0528   -1.1303   -1.8867 O   0  0  0  0  0
    4.1593    0.1754   -0.4141 O   0  0  0  0  0
   -3.6865    1.6732    0.9982 O   0  0  0  0  0
   -2.8579    2.0611   -1.3389 O   0  0  0  0  0
   -2.8868   -4.4428   -1.0256 O   0  0  0  0  0
   -2.7295    1.3959   -0.0567 S   0  0  0  0  0
  1  9  1  0  0  0
  2 10  1  0  0  0
  3 11  1  0  0  0
  4  6  1  0  0  0
  5 12  1  0  0  0
  7  8  1  0  0  0
  8 13  1  0  0  0
  9 22  1  0  0  0
 10 23  1  0  0  0
 11 28  1  0  0  0
 13 24  1  0  0  0
 14 15  1  0  0  0
 14 16  1  0  0  0
 15 17  1  0  0  0
 16 18  1  0  0  0
 17 19  1  0  0  0
 18 20  1  0  0  0
 19 22  1  0  0  0
 20 22  1  0  0  0
 21 28  1  0  0  0
 29 12  1  0  0  0
 29 23  1  0  0  0
  1  2  2  0  0  0
  3  5  2  0  0  0
  4 11  2  0  0  0
  6 12  2  0  0  0
  7 10  2  0  0  0
  8  9  2  0  0  0
 13 25  2  0  0  0
 29 26  2  0  0  0
 29 27  2  0  0  0
M  CHG  1  24  -1
M  END
> <rmsd>
0.707335413

$$$$
ZINC32962168


 29 31  0  0  0  0  0  0  0  0999 V2000
    0.8693    2.5248   -2.5700 C   0  0  0  0  0
   -0.1065    2.5015   -1.5738 C   0  0  0  0  0
   -2.9071   -2.3065   -1.7778 C   0  0  0  0  0
   -3.5399   -2.5656    0.5394 C   0  0  0  0  0
   -2.7428   -0.9355   -1.5796 C   0  0  0  0  0
   -3.3757   -1.1948    0.7376 C   0  0  0  0  0
    0.8585    0.4767   -0.6758 C   0  0  0  0  0
    1.8344    0.5000   -1.6722 C   0  0  0  0  0
    1.8398    1.5241   -2.6193 C   0  0  0  0  0
   -0.1121    1.4775   -0.6266 C   0  0  0  0  0
   -3.3056   -3.1216   -0.7183 C   0  0  0  0  0
   -2.9771   -0.3797   -0.3219 C   0  0  0  0  0
    2.8491   -0.5701   -1.7016 C   0  0  0  0  0
    2.5005    3.9962   -5.7635 C   0  0  0  0  0
    3.8640    4.2177   -5.1055 C   0  0  0  0  0
    2.3900    2.7167   -6.5954 C   0  0  0  0  0
    3.9576    3.7770   -3.6448 C   0  0  0  0  0
    1.7431    1.5319   -5.8781 C   0  0  0  0  0
    4.0833    2.2689   -3.4416 C   0  0  0  0  0
    2.6519    0.8192   -4.8792 C   0  0  0  0  0
   -3.2088   -4.9612   -2.2223 C   0  0  0  0  0
    2.8096    1.5655   -3.6266 N   0  0  0  0  0
   -1.1113    1.4539    0.3928 N   0  0  0  0  0
    2.6043   -1.6333   -2.3832 O   0  0  0  0  0
    3.9420   -0.4019   -1.0445 O   0  0  0  0  0
   -3.5970    1.7233    1.0634 O   0  0  0  0  0
   -2.9648    2.0184   -1.3474 O   0  0  0  0  0
   -3.4655   -4.4591   -0.9116 O   0  0  0  0  0
   -2.7679    1.3597   -0.0705 S   0  0  0  0  0
  1  9  1  0  0  0
  2 10  1  0  0  0
  3 11  1  0  0  0
  4  6  1  0  0  0
  5 12  1  0  0  0
  7  8  1  0  0  0
  8 13  1  0  0  0
  9 22  1  0  0  0
 10 23  1  0  0  0
 11 28  1  0  0  0
 13 24  1  0  0  0
 14 15  1  0  0  0
 14 16  1  0  0  0
 15 17  1  0  0  0
 16 18  1  0  0  0
 17 19  1  0  0  0
 18 20  1  0  0  0
 19 22  1  0  0  0
 20 22  1  0  0  0
 21 28  1  0  0  0
 29 12  1  0  0  0
 29 23  1  0  0  0
  1  2  2  0  0  0
  3  5  2  0  0  0
  4 11  2  0  0  0
  6 12  2  0  0  0
  7 10  2  0  0  0
  8  9  2  0  0  0
 13 25  2  0  0  0
 29 26  2  0  0  0
 29 27  2  0  0  0
M  CHG  1  24  -1
M  END
> <rmsd>
0.526173651

$$$$
ZINC32962230


 29 31  0  0  0  0  0  0  0  0999 V2000
   -2.9078   -2.3077   -1.7773 C   0  0  0  0  0
   -3.5410   -2.5651    0.5400 C   0  0  0  0  0
    0.8691    2.5247   -2.5714 C   0  0  0  0  0
   -0.1067    2.5014   -1.5751 C   0  0  0  0  0
   -2.7426   -0.9369   -1.5799 C   0  0  0  0  0
   -3.3759   -1.1942    0.7374 C   0  0  0  0  0
    0.8588    0.4769   -0.6770 C   0  0  0  0  0
    1.8346    0.5003   -1.6734 C   0  0  0  0  0
   -3.3070   -3.1219   -0.7173 C   0  0  0  0  0
    1.8398    1.5242   -2.6207 C   0  0  0  0  0
   -0.1119    1.4775   -0.6278 C   0  0  0  0  0
   -2.9767   -0.3800   -0.3226 C   0  0  0  0  0
    2.8494   -0.5697   -1.7028 C   0  0  0  0  0
    4.0576    2.2929   -3.3593 C   0  0  0  0  0
    2.4031    1.5214   -5.0367 C   0  0  0  0  0
    5.1478    1.8133   -4.3108 C   0  0  0  0  0
    3.5818    1.0835   -5.8991 C   0  0  0  0  0
   -2.1574   -5.2573   -1.3987 C   0  0  0  0  0
   -4.5677   -4.8748   -2.0152 C   0  0  0  0  0
   -3.9367   -5.3973    0.3322 C   0  0  0  0  0
   -3.4857   -4.5873   -0.9285 C   0  0  0  0  0
    2.8094    1.5656   -3.6278 N   0  0  0  0  0
   -1.1111    1.4540    0.3917 N   0  0  0  0  0
    2.6047   -1.6330   -2.3842 O   0  0  0  0  0
    3.9424   -0.4012   -1.0457 O   0  0  0  0  0
   -3.5968    1.7229    1.0625 O   0  0  0  0  0
   -2.9648    2.0179   -1.3485 O   0  0  0  0  0
    4.7116    1.9236   -5.6656 O   0  0  0  0  0
   -2.7678    1.3594   -0.0714 S   0  0  0  0  0
  1  9  1  0  0  0
  2  6  1  0  0  0
  3 10  1  0  0  0
  4 11  1  0  0  0
  5 12  1  0  0  0
  7  8  1  0  0  0
  8 13  1  0  0  0
 10 22  1  0  0  0
 11 23  1  0  0  0
 13 24  1  0  0  0
 14 16  1  0  0  0
 14 22  1  0  0  0
 15 17  1  0  0  0
 15 22  1  0  0  0
 16 28  1  0  0  0
 17 28  1  0  0  0
 18 21  1  0  0  0
 19 21  1  0  0  0
 20 21  1  0  0  0
 21  9  1  0  0  0
 29 12  1  0  0  0
 29 23  1  0  0  0
  1  5  2  0  0  0
  2  9  2  0  0  0
  3  4  2  0  0  0
  6 12  2  0  0  0
  7 11  2  0  0  0
  8 10  2  0  0  0
 13 25  2  0  0  0
 29 26  2  0  0  0
 29 27  2  0  0  0
M  CHG  1  24  -1
M  END
> <rmsd>
0.525621533

$$$$
ZINC32962230


 29 31  0  0  0  0  0  0  0  0999 V2000
   -2.4218   -2.2390   -1.8104 C   0  0  0  0  0
   -3.2457   -2.5875    0.4340 C   0  0  0  0  0
    1.0215    2.8842   -2.1905 C   0  0  0  0  0
   -0.0380    2.7671   -1.2908 C   0  0  0  0  0
   -2.3839   -0.8634   -1.5828 C   0  0  0  0  0
   -3.2079   -1.2119    0.6615 C   0  0  0  0  0
    0.9957    0.8068   -0.3288 C   0  0  0  0  0
    2.0552    0.9239   -1.2284 C   0  0  0  0  0
   -2.8527   -3.1012   -0.8019 C   0  0  0  0  0
    2.0680    1.9626   -2.1594 C   0  0  0  0  0
   -0.0509    1.7285   -0.3598 C   0  0  0  0  0
   -2.7769   -0.3498   -0.3469 C   0  0  0  0  0
    3.1492   -0.0640   -1.1742 C   0  0  0  0  0
    4.2778    2.9136   -2.6771 C   0  0  0  0  0
    2.8522    2.0482   -4.5115 C   0  0  0  0  0
    5.4860    2.5373   -3.5271 C   0  0  0  0  0
    4.1367    1.7186   -5.2640 C   0  0  0  0  0
   -1.4806   -5.1285   -1.3961 C   0  0  0  0  0
   -3.8457   -4.9216   -2.2325 C   0  0  0  0  0
   -3.3968   -5.4375    0.1578 C   0  0  0  0  0
   -2.8954   -4.5717   -1.0456 C   0  0  0  0  0
    3.1209    2.0974   -3.0702 N   0  0  0  0  0
   -1.1356    1.6090    0.5607 N   0  0  0  0  0
    3.0531   -1.1301   -1.8876 O   0  0  0  0  0
    4.1597    0.1760   -0.4152 O   0  0  0  0  0
   -3.6863    1.6729    0.9973 O   0  0  0  0  0
   -2.8579    2.0606   -1.3399 O   0  0  0  0  0
    5.1704    2.6389   -4.9155 O   0  0  0  0  0
   -2.7294    1.3956   -0.0575 S   0  0  0  0  0
  1  9  1  0  0  0
  2  6  1  0  0  0
  3 10  1  0  0  0
  4 11  1  0  0  0
  5 12  1  0  0  0
  7  8  1  0  0  0
  8 13  1  0  0  0
 10 22  1  0  0  0
 11 23  1  0  0  0
 13 24  1  0  0  0
 14 16  1  0  0  0
 14 22  1  0  0  0
 15 17  1  0  0  0
 15 22  1  0  0  0
 16 28  1  0  0  0
 17 28  1  0  0  0
 18 21  1  0  0  0
 19 21  1  0  0  0
 20 21  1  0  0  0
 21  9  1  0  0  0
 29 12  1  0  0  0
 29 23  1  0  0  0
  1  5  2  0  0  0
  2  9  2  0  0  0
  3  4  2  0  0  0
  6 12  2  0  0  0
  7 11  2  0  0  0
  8 10  2  0  0  0
 13 25  2  0  0  0
 29 26  2  0  0  0
 29 27  2  0  0  0
M  CHG  1  24  -1
M  END
> <rmsd>
0.70651257

$$$$
ZINC33253664


 29 31  0  0  0  0  0  0  0  0999 V2000
   -3.2450   -2.5885    0.4337 C   0  0  0  0  0
   -2.4213   -2.2382   -1.8103 C   0  0  0  0  0
    1.0205    2.8836   -2.1904 C   0  0  0  0  0
   -0.0388    2.7667   -1.2906 C   0  0  0  0  0
   -3.2080   -1.2130    0.6620 C   0  0  0  0  0
   -2.3842   -0.8627   -1.5821 C   0  0  0  0  0
    0.9950    0.8066   -0.3282 C   0  0  0  0  0
    2.0544    0.9235   -1.2281 C   0  0  0  0  0
   -2.8516   -3.1011   -0.8025 C   0  0  0  0  0
    2.0672    1.9620   -2.1592 C   0  0  0  0  0
   -0.0516    1.7283   -0.3594 C   0  0  0  0  0
   -2.7776   -0.3500   -0.3457 C   0  0  0  0  0
    3.1484   -0.0643   -1.1737 C   0  0  0  0  0
    4.2768    2.9130   -2.6774 C   0  0  0  0  0
    2.8511    2.0472   -4.5114 C   0  0  0  0  0
    5.4849    2.5365   -3.5274 C   0  0  0  0  0
    4.1355    1.7174   -5.2640 C   0  0  0  0  0
   -1.2290   -5.1526    0.7997 C   0  0  0  0  0
   -1.7005   -6.8034   -1.0213 C   0  0  0  0  0
   -2.8890   -4.5718   -1.0462 C   0  0  0  0  0
   -1.5807   -5.3157   -0.6811 C   0  0  0  0  0
    3.1199    2.0967   -3.0702 N   0  0  0  0  0
   -1.1362    1.6089    0.5612 N   0  0  0  0  0
    3.0523   -1.1306   -1.8869 O   0  0  0  0  0
    4.1590    0.1759   -0.4149 O   0  0  0  0  0
   -3.6869    1.6730    0.9982 O   0  0  0  0  0
   -2.8587    2.0602   -1.3393 O   0  0  0  0  0
    5.1692    2.6378   -4.9158 O   0  0  0  0  0
   -2.7301    1.3954   -0.0567 S   0  0  0  0  0
  1  9  1  0  0  0
  2  6  1  0  0  0
  3 10  1  0  0  0
  4 11  1  0  0  0
  5 12  1  0  0  0
  7  8  1  0  0  0
  8 13  1  0  0  0
 10 22  1  0  0  0
 11 23  1  0  0  0
 13 24  1  0  0  0
 14 16  1  0  0  0
 14 22  1  0  0  0
 15 17  1  0  0  0
 15 22  1  0  0  0
 16 28  1  0  0  0
 17 28  1  0  0  0
 18 21  1  0  0  0
 19 21  1  0  0  0
 20  9  1  0  0  0
 20 21  1  0  0  0
 29 12  1  0  0  0
 29 23  1  0  0  0
  1  5  2  0  0  0
  2  9  2  0  0  0
  3  4  2  0  0  0
  6 12  2  0  0  0
  7 11  2  0  0  0
  8 10  2  0  0  0
 13 25  2  0  0  0
 29 26  2  0  0  0
 29 27  2  0  0  0
M  CHG  1  24  -1
M  END
> <rmsd>
0.707246542

$$$$
ZINC33253664


 29 31  0  0  0  0  0  0  0  0999 V2000
   -3.5404   -2.5661    0.5398 C   0  0  0  0  0
   -2.9072   -2.3070   -1.7772 C   0  0  0  0  0
    0.8682    2.5241   -2.5712 C   0  0  0  0  0
   -0.1075    2.5009   -1.5748 C   0  0  0  0  0
   -3.3762   -1.1952    0.7381 C   0  0  0  0  0
   -2.7428   -0.9361   -1.5791 C   0  0  0  0  0
    0.8581    0.4767   -0.6764 C   0  0  0  0  0
    1.8338    0.4999   -1.6728 C   0  0  0  0  0
   -3.3059   -3.1220   -0.7178 C   0  0  0  0  0
    1.8389    1.5235   -2.6204 C   0  0  0  0  0
   -0.1126    1.4773   -0.6272 C   0  0  0  0  0
   -2.9773   -0.3802   -0.3213 C   0  0  0  0  0
    2.8487   -0.5701   -1.7021 C   0  0  0  0  0
    4.0567    2.2921   -3.3594 C   0  0  0  0  0
    2.4020    1.5202   -5.0365 C   0  0  0  0  0
    5.1467    1.8123   -4.3110 C   0  0  0  0  0
    3.5805    1.0821   -5.8989 C   0  0  0  0  0
   -1.7027   -5.2763    0.7645 C   0  0  0  0  0
   -2.4695   -6.9055   -0.9736 C   0  0  0  0  0
   -3.4795   -4.5879   -0.9295 C   0  0  0  0  0
   -2.2039   -5.4281   -0.6739 C   0  0  0  0  0
    2.8084    1.5648   -3.6276 N   0  0  0  0  0
   -1.1116    1.4540    0.3924 N   0  0  0  0  0
    2.6039   -1.6336   -2.3832 O   0  0  0  0  0
    3.9417   -0.4015   -1.0452 O   0  0  0  0  0
   -3.5972    1.7230    1.0634 O   0  0  0  0  0
   -2.9656    2.0175   -1.3477 O   0  0  0  0  0
    4.7104    1.9223   -5.6657 O   0  0  0  0  0
   -2.7683    1.3593   -0.0705 S   0  0  0  0  0
  1  9  1  0  0  0
  2  6  1  0  0  0
  3 10  1  0  0  0
  4 11  1  0  0  0
  5 12  1  0  0  0
  7  8  1  0  0  0
  8 13  1  0  0  0
 10 22  1  0  0  0
 11 23  1  0  0  0
 13 24  1  0  0  0
 14 16  1  0  0  0
 14 22  1  0  0  0
 15 17  1  0  0  0
 15 22  1  0  0  0
 16 28  1  0  0  0
 17 28  1  0  0  0
 18 21  1  0  0  0
 19 21  1  0  0  0
 20  9  1  0  0  0
 20 21  1  0  0  0
 29 12  1  0  0  0
 29 23  1  0  0  0
  1  5  2  0  0  0
  2  9  2  0  0  0
  3  4  2  0  0  0
  6 12  2  0  0  0
  7 11  2  0  0  0
  8 10  2  0  0  0
 13 25  2  0  0  0
 29 26  2  0  0  0
 29 27  2  0  0  0
M  CHG  1  24  -1
M  END
> <rmsd>
0.526254714

$$$$
ZINC33253442


 29 31  0  0  0  0  0  0  0  0999 V2000
    1.0208    2.8839   -2.1906 C   0  0  0  0  0
   -0.0386    2.7669   -1.2908 C   0  0  0  0  0
   -3.2457   -2.5882    0.4338 C   0  0  0  0  0
   -2.4228   -2.2391   -1.8106 C   0  0  0  0  0
   -3.2076   -1.2126    0.6619 C   0  0  0  0  0
   -2.3848   -0.8634   -1.5827 C   0  0  0  0  0
    0.9953    0.8067   -0.3286 C   0  0  0  0  0
    2.0546    0.9237   -1.2285 C   0  0  0  0  0
    2.0674    1.9624   -2.1595 C   0  0  0  0  0
   -0.0514    1.7283   -0.3598 C   0  0  0  0  0
   -2.8532   -3.1014   -0.8024 C   0  0  0  0  0
   -2.7772   -0.3503   -0.3465 C   0  0  0  0  0
    3.1488   -0.0640   -1.1742 C   0  0  0  0  0
    4.0928    1.6315   -5.2853 C   0  0  0  0  0
    5.5255    2.4992   -3.4271 C   0  0  0  0  0
    2.8418    2.0443   -4.5100 C   0  0  0  0  0
    4.2710    2.9145   -2.6604 C   0  0  0  0  0
    5.2905    2.5224   -4.9410 C   0  0  0  0  0
    6.5398    2.0689   -5.6922 C   0  0  0  0  0
   -2.0543   -6.5882   -0.3651 C   0  0  0  0  0
   -2.6866   -5.2946    0.1020 C   0  0  0  0  0
    3.1212    2.0974   -3.0712 N   0  0  0  0  0
   -1.1360    1.6087    0.5609 N   0  0  0  0  0
    3.0529   -1.1302   -1.8875 O   0  0  0  0  0
    4.1593    0.1762   -0.4153 O   0  0  0  0  0
   -3.6867    1.6726    0.9977 O   0  0  0  0  0
   -2.8585    2.0601   -1.3396 O   0  0  0  0  0
   -2.8907   -4.4435   -1.0249 O   0  0  0  0  0
   -2.7298    1.3953   -0.0572 S   0  0  0  0  0
  1  9  1  0  0  0
  2 10  1  0  0  0
  3 11  1  0  0  0
  4  6  1  0  0  0
  5 12  1  0  0  0
  7  8  1  0  0  0
  8 13  1  0  0  0
  9 22  1  0  0  0
 10 23  1  0  0  0
 11 28  1  0  0  0
 13 24  1  0  0  0
 14 16  1  0  0  0
 14 18  1  0  0  0
 15 17  1  0  0  0
 15 18  1  0  0  0
 16 22  1  0  0  0
 17 22  1  0  0  0
 18 19  1  0  0  0
 20 21  1  0  0  0
 21 28  1  0  0  0
 29 12  1  0  0  0
 29 23  1  0  0  0
  1  2  2  0  0  0
  3  5  2  0  0  0
  4 11  2  0  0  0
  6 12  2  0  0  0
  7 10  2  0  0  0
  8  9  2  0  0  0
 13 25  2  0  0  0
 29 26  2  0  0  0
 29 27  2  0  0  0
M  CHG  1  24  -1
M  END
> <rmsd>
0.706739426

$$$$
ZINC33253442


 29 31  0  0  0  0  0  0  0  0999 V2000
    0.8687    2.5243   -2.5712 C   0  0  0  0  0
   -0.1071    2.5010   -1.5749 C   0  0  0  0  0
   -3.5412   -2.5657    0.5400 C   0  0  0  0  0
   -2.9087   -2.3078   -1.7773 C   0  0  0  0  0
   -3.3758   -1.1949    0.7378 C   0  0  0  0  0
   -2.7433   -0.9369   -1.5797 C   0  0  0  0  0
    0.8584    0.4767   -0.6765 C   0  0  0  0  0
    1.8342    0.5000   -1.6729 C   0  0  0  0  0
    1.8394    1.5238   -2.6203 C   0  0  0  0  0
   -0.1123    1.4773   -0.6274 C   0  0  0  0  0
   -3.3075   -3.1222   -0.7175 C   0  0  0  0  0
   -2.9769   -0.3805   -0.3221 C   0  0  0  0  0
    2.8492   -0.5700   -1.7022 C   0  0  0  0  0
    3.5301    0.9994   -5.9140 C   0  0  0  0  0
    5.1940    1.7730   -4.2135 C   0  0  0  0  0
    2.3931    1.5179   -5.0337 C   0  0  0  0  0
    4.0529    2.2941   -3.3415 C   0  0  0  0  0
    4.8200    1.7973   -5.6993 C   0  0  0  0  0
    5.9544    1.2386   -6.5548 C   0  0  0  0  0
   -2.7423   -6.6558   -0.2914 C   0  0  0  0  0
   -3.2262   -5.3113    0.2083 C   0  0  0  0  0
    2.8100    1.5652   -3.6283 N   0  0  0  0  0
   -1.1114    1.4537    0.3922 N   0  0  0  0  0
    2.6046   -1.6333   -2.3835 O   0  0  0  0  0
    3.9421   -0.4013   -1.0451 O   0  0  0  0  0
   -3.5972    1.7226    1.0629 O   0  0  0  0  0
   -2.9652    2.0174   -1.3482 O   0  0  0  0  0
   -3.4691   -4.4597   -0.9105 O   0  0  0  0  0
   -2.7681    1.3591   -0.0711 S   0  0  0  0  0
  1  9  1  0  0  0
  2 10  1  0  0  0
  3 11  1  0  0  0
  4  6  1  0  0  0
  5 12  1  0  0  0
  7  8  1  0  0  0
  8 13  1  0  0  0
  9 22  1  0  0  0
 10 23  1  0  0  0
 11 28  1  0  0  0
 13 24  1  0  0  0
 14 16  1  0  0  0
 14 18  1  0  0  0
 15 17  1  0  0  0
 15 18  1  0  0  0
 16 22  1  0  0  0
 17 22  1  0  0  0
 18 19  1  0  0  0
 20 21  1  0  0  0
 21 28  1  0  0  0
 29 12  1  0  0  0
 29 23  1  0  0  0
  1  2  2  0  0  0
  3  5  2  0  0  0
  4 11  2  0  0  0
  6 12  2  0  0  0
  7 10  2  0  0  0
  8  9  2  0  0  0
 13 25  2  0  0  0
 29 26  2  0  0  0
 29 27  2  0  0  0
M  CHG  1  24  -1
M  END
> <rmsd>
0.525810063

$$$$
ZINC58009241


 29 31  0  0  0  0  0  0  0  0999 V2000
    1.9431    1.5933   -2.4777 C   0  0  0  0  0
   -3.4456   -2.5789    0.5036 C   0  0  0  0  0
   -2.7518   -2.2969   -1.7935 C   0  0  0  0  0
    1.0438    2.6553   -2.3836 C   0  0  0  0  0
   -3.3179   -1.2055    0.7108 C   0  0  0  0  0
   -2.6241   -0.9234   -1.5863 C   0  0  0  0  0
    0.8214    0.4817   -0.6491 C   0  0  0  0  0
    1.8319    0.5063   -1.6104 C   0  0  0  0  0
   -3.1626   -3.1247   -0.7486 C   0  0  0  0  0
    0.0333    2.6306   -1.4224 C   0  0  0  0  0
   -0.0779    1.5438   -0.5551 C   0  0  0  0  0
   -2.9072   -0.3778   -0.3342 C   0  0  0  0  0
    2.7809   -0.6142   -1.7101 C   0  0  0  0  0
   -1.1529    4.4374   -2.5845 C   0  0  0  0  0
   -0.9512    4.4824   -0.1041 C   0  0  0  0  0
   -2.4996    5.1411   -2.4861 C   0  0  0  0  0
   -2.2966    5.1910   -0.0114 C   0  0  0  0  0
   -1.9583   -5.2574   -1.3442 C   0  0  0  0  0
   -4.3630   -4.9344   -2.0284 C   0  0  0  0  0
   -3.7706    6.8358   -1.1697 C   0  0  0  0  0
   -3.2969   -4.5933   -0.9699 C   0  0  0  0  0
   -0.8586    3.7065   -1.3449 N   0  0  0  0  0
   -1.1060    1.4963    0.4386 N   0  0  0  0  0
   -2.5164    6.0124   -1.2558 N   0  0  0  0  0
    2.6569   -1.6056   -0.8973 O   0  0  0  0  0
    3.7044   -0.5665   -2.6064 O   0  0  0  0  0
   -3.6125    1.7056    1.0400 O   0  0  0  0  0
   -2.9215    2.0237   -1.3518 O   0  0  0  0  0
   -2.7446    1.3651   -0.0720 S   0  0  0  0  0
  1  8  1  0  0  0
  2  9  1  0  0  0
  3  6  1  0  0  0
  4 10  1  0  0  0
  5 12  1  0  0  0
  7 11  1  0  0  0
  8 13  1  0  0  0
 10 22  1  0  0  0
 11 23  1  0  0  0
 13 25  1  0  0  0
 14 16  1  0  0  0
 14 22  1  0  0  0
 15 17  1  0  0  0
 15 22  1  0  0  0
 16 24  1  0  0  0
 17 24  1  0  0  0
 18 21  1  0  0  0
 19 21  1  0  0  0
 20 24  1  0  0  0
 21  9  1  0  0  0
 29 12  1  0  0  0
 29 23  1  0  0  0
  1  4  2  0  0  0
  2  5  2  0  0  0
  3  9  2  0  0  0
  6 12  2  0  0  0
  7  8  2  0  0  0
 10 11  2  0  0  0
 13 26  2  0  0  0
 29 27  2  0  0  0
 29 28  2  0  0  0
M  CHG  2  24   1  25  -1
M  END
> <rmsd>
0.589362621

$$$$
ZINC58009292


 29 31  0  0  0  0  0  0  0  0999 V2000
    1.9431    1.5942   -2.4775 C   0  0  0  0  0
   -3.4456   -2.5780    0.5038 C   0  0  0  0  0
   -2.7518   -2.2960   -1.7933 C   0  0  0  0  0
    1.0438    2.6563   -2.3834 C   0  0  0  0  0
   -3.3179   -1.2045    0.7109 C   0  0  0  0  0
   -2.6241   -0.9225   -1.5861 C   0  0  0  0  0
    0.8214    0.4826   -0.6489 C   0  0  0  0  0
    1.8319    0.5073   -1.6102 C   0  0  0  0  0
   -3.1626   -3.1237   -0.7484 C   0  0  0  0  0
    0.0333    2.6316   -1.4223 C   0  0  0  0  0
   -0.0779    1.5448   -0.5550 C   0  0  0  0  0
   -2.9072   -0.3768   -0.3340 C   0  0  0  0  0
    2.7808   -0.6132   -1.7099 C   0  0  0  0  0
   -1.1529    4.4384   -2.5843 C   0  0  0  0  0
   -0.9512    4.4834   -0.1039 C   0  0  0  0  0
   -2.4996    5.1420   -2.4859 C   0  0  0  0  0
   -2.2966    5.1919   -0.0112 C   0  0  0  0  0
   -3.2970   -4.5923   -0.9697 C   0  0  0  0  0
   -4.8762    8.9215   -2.0214 C   0  0  0  0  0
   -3.6486    8.0289   -2.1052 C   0  0  0  0  0
   -3.7706    6.8368   -1.1695 C   0  0  0  0  0
   -0.8587    3.7075   -1.3447 N   0  0  0  0  0
   -1.1060    1.4973    0.4388 N   0  0  0  0  0
   -2.5164    6.0133   -1.2556 N   0  0  0  0  0
    2.6568   -1.6047   -0.8971 O   0  0  0  0  0
    3.7043   -0.5656   -2.6062 O   0  0  0  0  0
   -3.6125    1.7066    1.0401 O   0  0  0  0  0
   -2.9216    2.0247   -1.3516 O   0  0  0  0  0
   -2.7446    1.3660   -0.0718 S   0  0  0  0  0
  1  8  1  0  0  0
  2  9  1  0  0  0
  3  6  1  0  0  0
  4 10  1  0  0  0
  5 12  1  0  0  0
  7 11  1  0  0  0
  8 13  1  0  0  0
 10 22  1  0  0  0
 11 23  1  0  0  0
 13 25  1  0  0  0
 14 16  1  0  0  0
 14 22  1  0  0  0
 15 17  1  0  0  0
 15 22  1  0  0  0
 16 24  1  0  0  0
 17 24  1  0  0  0
 18  9  1  0  0  0
 19 20  1  0  0  0
 20 21  1  0  0  0
 21 24  1  0  0  0
 29 12  1  0  0  0
 29 23  1  0  0  0
  1  4  2  0  0  0
  2  5  2  0  0  0
  3  9  2  0  0  0
  6 12  2  0  0  0
  7  8  2  0  0  0
 10 11  2  0  0  0
 13 26  2  0  0  0
 29 27  2  0  0  0
 29 28  2  0  0  0
M  CHG  2  24   1  25  -1
M  END
> <rmsd>
0.589362621

$$$$
ZINC64580601


 29 31  0  0  0  0  0  0  0  0999 V2000
    0.8692    2.5243   -2.5712 C   0  0  0  0  0
   -0.1067    2.5010   -1.5749 C   0  0  0  0  0
    0.8590    0.4768   -0.6765 C   0  0  0  0  0
   -3.3060   -3.1223   -0.7178 C   0  0  0  0  0
   -3.3753   -1.1953    0.7377 C   0  0  0  0  0
   -2.7423   -0.9367   -1.5795 C   0  0  0  0  0
    1.8348    0.5001   -1.6730 C   0  0  0  0  0
   -3.5400   -2.5661    0.5398 C   0  0  0  0  0
   -2.9071   -2.3076   -1.7775 C   0  0  0  0  0
    1.8399    1.5238   -2.6203 C   0  0  0  0  0
   -0.1118    1.4773   -0.6275 C   0  0  0  0  0
   -2.9764   -0.3805   -0.3219 C   0  0  0  0  0
    2.8497   -0.5699   -1.7022 C   0  0  0  0  0
    4.0531    2.2956   -3.3468 C   0  0  0  0  0
    2.3963    1.5191   -5.0343 C   0  0  0  0  0
    5.1861    1.7866   -4.2275 C   0  0  0  0  0
    3.5338    1.0162   -5.9140 C   0  0  0  0  0
   -3.9663   -3.4372    1.6727 C   0  0  0  0  0
   -2.6567   -2.9024   -3.1220 C   0  0  0  0  0
    5.4130    1.6408   -8.0338 C   0  0  0  0  0
    5.8832    1.4895   -6.6037 C   0  0  0  0  0
    2.8102    1.5653   -3.6283 N   0  0  0  0  0
   -1.1109    1.4537    0.3922 N   0  0  0  0  0
    4.7620    1.8557   -5.6726 N   0  0  0  0  0
    2.6052   -1.6333   -2.3835 O   0  0  0  0  0
    3.9427   -0.4011   -1.0451 O   0  0  0  0  0
   -3.5966    1.7226    1.0630 O   0  0  0  0  0
   -2.9647    2.0174   -1.3482 O   0  0  0  0  0
   -2.7675    1.3590   -0.0711 S   0  0  0  0  0
  1 10  1  0  0  0
  2 11  1  0  0  0
  3  7  1  0  0  0
  4  8  1  0  0  0
  5 12  1  0  0  0
  6  9  1  0  0  0
  7 13  1  0  0  0
 10 22  1  0  0  0
 11 23  1  0  0  0
 13 25  1  0  0  0
 14 16  1  0  0  0
 14 22  1  0  0  0
 15 17  1  0  0  0
 15 22  1  0  0  0
 16 24  1  0  0  0
 17 24  1  0  0  0
 18  8  1  0  0  0
 19  9  1  0  0  0
 20 21  1  0  0  0
 21 24  1  0  0  0
 29 12  1  0  0  0
 29 23  1  0  0  0
  1  2  2  0  0  0
  3 11  2  0  0  0
  4  9  2  0  0  0
  5  8  2  0  0  0
  6 12  2  0  0  0
  7 10  2  0  0  0
 13 26  2  0  0  0
 29 27  2  0  0  0
 29 28  2  0  0  0
M  CHG  2  24   1  25  -1
M  END
> <rmsd>
0.526051223

$$$$
ZINC64580601


 29 31  0  0  0  0  0  0  0  0999 V2000
    1.0215    2.8836   -2.1905 C   0  0  0  0  0
   -0.0379    2.7666   -1.2908 C   0  0  0  0  0
    0.9959    0.8065   -0.3285 C   0  0  0  0  0
   -2.8519   -3.1014   -0.8024 C   0  0  0  0  0
   -3.2072   -1.2130    0.6618 C   0  0  0  0  0
   -2.3838   -0.8633   -1.5824 C   0  0  0  0  0
    2.0552    0.9235   -1.2284 C   0  0  0  0  0
   -3.2448   -2.5885    0.4338 C   0  0  0  0  0
   -2.4214   -2.2388   -1.8106 C   0  0  0  0  0
    2.0680    1.9620   -2.1594 C   0  0  0  0  0
   -0.0508    1.7281   -0.3597 C   0  0  0  0  0
   -2.7768   -0.3503   -0.3463 C   0  0  0  0  0
    3.1493   -0.0644   -1.1740 C   0  0  0  0  0
    4.2717    2.9155   -2.6656 C   0  0  0  0  0
    2.8451    2.0452   -4.5101 C   0  0  0  0  0
    5.5182    2.5117   -3.4414 C   0  0  0  0  0
    4.0954    1.6479   -5.2845 C   0  0  0  0  0
   -3.7048   -3.5108    1.5116 C   0  0  0  0  0
   -2.0012   -2.7875   -3.1321 C   0  0  0  0  0
    6.1086    2.4548   -7.2108 C   0  0  0  0  0
    6.4543    2.3135   -5.7446 C   0  0  0  0  0
    3.1216    2.0969   -3.0710 N   0  0  0  0  0
   -1.1354    1.6087    0.5610 N   0  0  0  0  0
    5.2261    2.5749   -4.9191 N   0  0  0  0  0
    3.0533   -1.1306   -1.8873 O   0  0  0  0  0
    4.1598    0.1758   -0.4151 O   0  0  0  0  0
   -3.6861    1.6727    0.9978 O   0  0  0  0  0
   -2.8579    2.0601   -1.3396 O   0  0  0  0  0
   -2.7292    1.3952   -0.0572 S   0  0  0  0  0
  1 10  1  0  0  0
  2 11  1  0  0  0
  3  7  1  0  0  0
  4  8  1  0  0  0
  5 12  1  0  0  0
  6  9  1  0  0  0
  7 13  1  0  0  0
 10 22  1  0  0  0
 11 23  1  0  0  0
 13 25  1  0  0  0
 14 16  1  0  0  0
 14 22  1  0  0  0
 15 17  1  0  0  0
 15 22  1  0  0  0
 16 24  1  0  0  0
 17 24  1  0  0  0
 18  8  1  0  0  0
 19  9  1  0  0  0
 20 21  1  0  0  0
 21 24  1  0  0  0
 29 12  1  0  0  0
 29 23  1  0  0  0
  1  2  2  0  0  0
  3 11  2  0  0  0
  4  9  2  0  0  0
  5  8  2  0  0  0
  6 12  2  0  0  0
  7 10  2  0  0  0
 13 26  2  0  0  0
 29 27  2  0  0  0
 29 28  2  0  0  0
M  CHG  2  24   1  25  -1
M  END
> <rmsd>
0.706890047

$$$$
ZINC64580583


 29 31  0  0  0  0  0  0  0  0999 V2000
   -3.4258   -2.2284   -1.8039 C   0  0  0  0  0
    0.8584    2.5121   -2.5853 C   0  0  0  0  0
   -0.1147    2.4930   -1.5862 C   0  0  0  0  0
   -3.2598   -0.8605   -1.5873 C   0  0  0  0  0
    0.8580    0.4771   -0.6772 C   0  0  0  0  0
   -3.0212   -2.6488    0.5406 C   0  0  0  0  0
    1.8312    0.4961   -1.6763 C   0  0  0  0  0
   -3.3066   -3.1226   -0.7400 C   0  0  0  0  0
   -2.8551   -1.2809    0.7572 C   0  0  0  0  0
    1.8314    1.5136   -2.6304 C   0  0  0  0  0
   -0.1150    1.4756   -0.6321 C   0  0  0  0  0
   -2.9744   -0.3868   -0.3068 C   0  0  0  0  0
    2.8485   -0.5718   -1.7012 C   0  0  0  0  0
    4.0408    2.2857   -3.3678 C   0  0  0  0  0
    2.3814    1.4943   -5.0457 C   0  0  0  0  0
    5.1727    1.7735   -4.2481 C   0  0  0  0  0
    3.5178    0.9882   -5.9251 C   0  0  0  0  0
   -3.4838   -4.5853   -0.9723 C   0  0  0  0  0
   -2.5502   -0.8062    2.1403 C   0  0  0  0  0
    5.3899    1.6031   -8.0539 C   0  0  0  0  0
    5.8643    1.4623   -6.6242 C   0  0  0  0  0
    2.7989    1.5506   -3.6411 N   0  0  0  0  0
   -1.1113    1.4565    0.3903 N   0  0  0  0  0
    4.7446    1.8321   -5.6925 N   0  0  0  0  0
    2.6046   -1.6401   -2.3748 O   0  0  0  0  0
    3.9428   -0.3961   -1.0481 O   0  0  0  0  0
   -3.5959    1.7240    1.0659 O   0  0  0  0  0
   -2.9711    2.0043   -1.3488 O   0  0  0  0  0
   -2.7690    1.3549   -0.0679 S   0  0  0  0  0
  1  8  1  0  0  0
  2 10  1  0  0  0
  3 11  1  0  0  0
  4 12  1  0  0  0
  5  7  1  0  0  0
  6  9  1  0  0  0
  7 13  1  0  0  0
 10 22  1  0  0  0
 11 23  1  0  0  0
 13 25  1  0  0  0
 14 16  1  0  0  0
 14 22  1  0  0  0
 15 17  1  0  0  0
 15 22  1  0  0  0
 16 24  1  0  0  0
 17 24  1  0  0  0
 18  8  1  0  0  0
 19  9  1  0  0  0
 20 21  1  0  0  0
 21 24  1  0  0  0
 29 12  1  0  0  0
 29 23  1  0  0  0
  1  4  2  0  0  0
  2  3  2  0  0  0
  5 11  2  0  0  0
  6  8  2  0  0  0
  7 10  2  0  0  0
  9 12  2  0  0  0
 13 26  2  0  0  0
 29 27  2  0  0  0
 29 28  2  0  0  0
M  CHG  2  24   1  25  -1
M  END
> <rmsd>
0.528241038

$$$$
ZINC64580583


 29 31  0  0  0  0  0  0  0  0999 V2000
   -2.9399   -2.1983   -1.8861 C   0  0  0  0  0
    1.0101    2.8744   -2.2076 C   0  0  0  0  0
   -0.0465    2.7608   -1.3042 C   0  0  0  0  0
   -2.9032   -0.8261   -1.6388 C   0  0  0  0  0
    0.9945    0.8093   -0.3321 C   0  0  0  0  0
   -2.7213   -2.6309    0.4807 C   0  0  0  0  0
    2.0511    0.9228   -1.2357 C   0  0  0  0  0
   -2.8490   -3.1007   -0.8264 C   0  0  0  0  0
   -2.6845   -1.2585    0.7281 C   0  0  0  0  0
    2.0589    1.9554   -2.1734 C   0  0  0  0  0
   -0.0543    1.7283   -0.3663 C   0  0  0  0  0
   -2.7755   -0.3562   -0.3317 C   0  0  0  0  0
    3.1475   -0.0622   -1.1781 C   0  0  0  0  0
    4.2589    2.9105   -2.6920 C   0  0  0  0  0
    2.8291    2.0250   -4.5269 C   0  0  0  0  0
    5.5041    2.5046   -3.4687 C   0  0  0  0  0
    4.0781    1.6256   -5.3022 C   0  0  0  0  0
   -2.8880   -4.5681   -1.0916 C   0  0  0  0  0
   -2.5469   -0.7882    2.1392 C   0  0  0  0  0
    6.0841    2.4245   -7.2394 C   0  0  0  0  0
    6.4342    2.2936   -5.7733 C   0  0  0  0  0
    3.1095    2.0867   -3.0889 N   0  0  0  0  0
   -1.1361    1.6124    0.5582 N   0  0  0  0  0
    5.2077    2.5575   -4.9460 N   0  0  0  0  0
    3.0520   -1.1331   -1.8841 O   0  0  0  0  0
    4.1597    0.1853   -0.4236 O   0  0  0  0  0
   -3.6857    1.6734    1.0018 O   0  0  0  0  0
   -2.8650    2.0475   -1.3404 O   0  0  0  0  0
   -2.7312    1.3913   -0.0540 S   0  0  0  0  0
  1  8  1  0  0  0
  2 10  1  0  0  0
  3 11  1  0  0  0
  4 12  1  0  0  0
  5  7  1  0  0  0
  6  9  1  0  0  0
  7 13  1  0  0  0
 10 22  1  0  0  0
 11 23  1  0  0  0
 13 25  1  0  0  0
 14 16  1  0  0  0
 14 22  1  0  0  0
 15 17  1  0  0  0
 15 22  1  0  0  0
 16 24  1  0  0  0
 17 24  1  0  0  0
 18  8  1  0  0  0
 19  9  1  0  0  0
 20 21  1  0  0  0
 21 24  1  0  0  0
 29 12  1  0  0  0
 29 23  1  0  0  0
  1  4  2  0  0  0
  2  3  2  0  0  0
  5 11  2  0  0  0
  6  8  2  0  0  0
  7 10  2  0  0  0
  9 12  2  0  0  0
 13 26  2  0  0  0
 29 27  2  0  0  0
 29 28  2  0  0  0
M  CHG  2  24   1  25  -1
M  END
> <rmsd>
0.709891438

$$$$
ZINC64580561


 29 31  0  0  0  0  0  0  0  0999 V2000
   -3.5398   -2.5662    0.5391 C   0  0  0  0  0
   -2.9064   -2.3069   -1.7780 C   0  0  0  0  0
    0.8690    2.5243   -2.5713 C   0  0  0  0  0
   -0.1069    2.5011   -1.5750 C   0  0  0  0  0
   -3.3755   -1.1954    0.7374 C   0  0  0  0  0
   -2.7421   -0.9361   -1.5796 C   0  0  0  0  0
    0.8587    0.4768   -0.6766 C   0  0  0  0  0
    1.8345    0.5001   -1.6731 C   0  0  0  0  0
   -3.3052   -3.1220   -0.7186 C   0  0  0  0  0
    1.8396    1.5238   -2.6205 C   0  0  0  0  0
   -0.1120    1.4774   -0.6276 C   0  0  0  0  0
   -2.9767   -0.3803   -0.3219 C   0  0  0  0  0
    2.8493   -0.5700   -1.7023 C   0  0  0  0  0
    4.0528    2.2955   -3.3470 C   0  0  0  0  0
    2.3960    1.5190   -5.0344 C   0  0  0  0  0
    5.1858    1.7864   -4.2277 C   0  0  0  0  0
    3.5334    1.0161   -5.9141 C   0  0  0  0  0
   -3.4787   -4.5879   -0.9305 C   0  0  0  0  0
    7.9523    2.3725   -7.7137 C   0  0  0  0  0
    6.8222    2.6765   -6.7435 C   0  0  0  0  0
    5.8829    1.4892   -6.6039 C   0  0  0  0  0
    2.8099    1.5652   -3.6284 N   0  0  0  0  0
   -1.1111    1.4539    0.3921 N   0  0  0  0  0
    4.7617    1.8555   -5.6728 N   0  0  0  0  0
    2.6048   -1.6333   -2.3836 O   0  0  0  0  0
    3.9424   -0.4012   -1.0453 O   0  0  0  0  0
   -3.5968    1.7229    1.0629 O   0  0  0  0  0
   -2.9649    2.0176   -1.3482 O   0  0  0  0  0
   -2.7678    1.3593   -0.0711 S   0  0  0  0  0
  1  9  1  0  0  0
  2  6  1  0  0  0
  3 10  1  0  0  0
  4 11  1  0  0  0
  5 12  1  0  0  0
  7  8  1  0  0  0
  8 13  1  0  0  0
 10 22  1  0  0  0
 11 23  1  0  0  0
 13 25  1  0  0  0
 14 16  1  0  0  0
 14 22  1  0  0  0
 15 17  1  0  0  0
 15 22  1  0  0  0
 16 24  1  0  0  0
 17 24  1  0  0  0
 18  9  1  0  0  0
 19 20  1  0  0  0
 20 21  1  0  0  0
 21 24  1  0  0  0
 29 12  1  0  0  0
 29 23  1  0  0  0
  1  5  2  0  0  0
  2  9  2  0  0  0
  3  4  2  0  0  0
  6 12  2  0  0  0
  7 11  2  0  0  0
  8 10  2  0  0  0
 13 26  2  0  0  0
 29 27  2  0  0  0
 29 28  2  0  0  0
M  CHG  2  24   1  25  -1
M  END
> <rmsd>
0.526384234

$$$$
ZINC64580561


 29 31  0  0  0  0  0  0  0  0999 V2000
   -3.2445   -2.5886    0.4331 C   0  0  0  0  0
   -2.4207   -2.2381   -1.8110 C   0  0  0  0  0
    1.0213    2.8837   -2.1907 C   0  0  0  0  0
   -0.0381    2.7667   -1.2909 C   0  0  0  0  0
   -3.2075   -1.2131    0.6615 C   0  0  0  0  0
   -2.3837   -0.8626   -1.5825 C   0  0  0  0  0
    0.9956    0.8065   -0.3286 C   0  0  0  0  0
    2.0550    0.9234   -1.2285 C   0  0  0  0  0
   -2.8511   -3.1011   -0.8031 C   0  0  0  0  0
    2.0678    1.9620   -2.1595 C   0  0  0  0  0
   -0.0510    1.7282   -0.3598 C   0  0  0  0  0
   -2.7771   -0.3501   -0.3463 C   0  0  0  0  0
    3.1489   -0.0645   -1.1742 C   0  0  0  0  0
    4.2715    2.9153   -2.6658 C   0  0  0  0  0
    2.8448    2.0451   -4.5103 C   0  0  0  0  0
    5.5179    2.5115   -3.4416 C   0  0  0  0  0
    4.0950    1.6477   -5.2847 C   0  0  0  0  0
   -2.8886   -4.5718   -1.0470 C   0  0  0  0  0
    8.5419    3.3740   -6.6448 C   0  0  0  0  0
    7.3062    3.5718   -5.7820 C   0  0  0  0  0
    6.4540    2.3132   -5.7449 C   0  0  0  0  0
    3.1213    2.0968   -3.0711 N   0  0  0  0  0
   -1.1356    1.6088    0.5609 N   0  0  0  0  0
    5.2259    2.5746   -4.9193 N   0  0  0  0  0
    3.0529   -1.1306   -1.8874 O   0  0  0  0  0
    4.1595    0.1757   -0.4153 O   0  0  0  0  0
   -3.6863    1.6730    0.9978 O   0  0  0  0  0
   -2.8581    2.0603   -1.3397 O   0  0  0  0  0
   -2.7295    1.3955   -0.0572 S   0  0  0  0  0
  1  9  1  0  0  0
  2  6  1  0  0  0
  3 10  1  0  0  0
  4 11  1  0  0  0
  5 12  1  0  0  0
  7  8  1  0  0  0
  8 13  1  0  0  0
 10 22  1  0  0  0
 11 23  1  0  0  0
 13 25  1  0  0  0
 14 16  1  0  0  0
 14 22  1  0  0  0
 15 17  1  0  0  0
 15 22  1  0  0  0
 16 24  1  0  0  0
 17 24  1  0  0  0
 18  9  1  0  0  0
 19 20  1  0  0  0
 20 21  1  0  0  0
 21 24  1  0  0  0
 29 12  1  0  0  0
 29 23  1  0  0  0
  1  5  2  0  0  0
  2  9  2  0  0  0
  3  4  2  0  0  0
  6 12  2  0  0  0
  7 11  2  0  0  0
  8 10  2  0  0  0
 13 26  2  0  0  0
 29 27  2  0  0  0
 29 28  2  0  0  0
M  CHG  2  24   1  25  -1
M  END
> <rmsd>
0.707292974

$$$$
ZINC64580556


 29 31  0  0  0  0  0  0  0  0999 V2000
    1.0095    2.8738   -2.2073 C   0  0  0  0  0
   -0.0471    2.7602   -1.3039 C   0  0  0  0  0
    0.9939    0.8087   -0.3319 C   0  0  0  0  0
   -2.7215   -2.6315    0.4803 C   0  0  0  0  0
   -2.9033   -0.8265   -1.6389 C   0  0  0  0  0
    2.0505    0.9222   -1.2354 C   0  0  0  0  0
   -2.8487   -3.1012   -0.8269 C   0  0  0  0  0
   -2.6852   -1.2593    0.7279 C   0  0  0  0  0
   -2.9396   -2.1988   -1.8865 C   0  0  0  0  0
    2.0583    1.9548   -2.1731 C   0  0  0  0  0
   -0.0550    1.7277   -0.3661 C   0  0  0  0  0
   -2.7761   -0.3568   -0.3317 C   0  0  0  0  0
    3.1469   -0.0628   -1.1778 C   0  0  0  0  0
    4.2584    2.9100   -2.6916 C   0  0  0  0  0
    2.8286    2.0246   -4.5266 C   0  0  0  0  0
    5.5036    2.5041   -3.4683 C   0  0  0  0  0
    4.0777    1.6252   -5.3018 C   0  0  0  0  0
   -2.8855   -4.5748   -1.0676 C   0  0  0  0  0
   -2.5474   -0.7889    2.1392 C   0  0  0  0  0
   -3.0767   -2.6786   -3.2943 C   0  0  0  0  0
    6.4338    2.2932   -5.7728 C   0  0  0  0  0
    3.1090    2.0862   -3.0885 N   0  0  0  0  0
   -1.1367    1.6117    0.5584 N   0  0  0  0  0
    5.2073    2.5571   -4.9455 N   0  0  0  0  0
    3.0514   -1.1337   -1.8840 O   0  0  0  0  0
    4.1590    0.1847   -0.4233 O   0  0  0  0  0
   -3.6864    1.6727    1.0019 O   0  0  0  0  0
   -2.8656    2.0469   -1.3403 O   0  0  0  0  0
   -2.7318    1.3907   -0.0540 S   0  0  0  0  0
  1 10  1  0  0  0
  2 11  1  0  0  0
  3  6  1  0  0  0
  4  7  1  0  0  0
  5  9  1  0  0  0
  6 13  1  0  0  0
  8 12  1  0  0  0
 10 22  1  0  0  0
 11 23  1  0  0  0
 13 25  1  0  0  0
 14 16  1  0  0  0
 14 22  1  0  0  0
 15 17  1  0  0  0
 15 22  1  0  0  0
 16 24  1  0  0  0
 17 24  1  0  0  0
 18  7  1  0  0  0
 19  8  1  0  0  0
 20  9  1  0  0  0
 21 24  1  0  0  0
 29 12  1  0  0  0
 29 23  1  0  0  0
  1  2  2  0  0  0
  3 11  2  0  0  0
  4  8  2  0  0  0
  5 12  2  0  0  0
  6 10  2  0  0  0
  7  9  2  0  0  0
 13 26  2  0  0  0
 29 27  2  0  0  0
 29 28  2  0  0  0
M  CHG  2  24   1  25  -1
M  END
> <rmsd>
0.710047305

$$$$
ZINC64580556


 29 31  0  0  0  0  0  0  0  0999 V2000
    0.8579    2.5116   -2.5849 C   0  0  0  0  0
   -0.1153    2.4926   -1.5859 C   0  0  0  0  0
    0.8574    0.4765   -0.6769 C   0  0  0  0  0
   -3.0215   -2.6495    0.5402 C   0  0  0  0  0
   -3.2599   -0.8610   -1.5874 C   0  0  0  0  0
    1.8305    0.4955   -1.6761 C   0  0  0  0  0
   -3.3063   -3.1231   -0.7405 C   0  0  0  0  0
   -2.8559   -1.2816    0.7571 C   0  0  0  0  0
   -3.4256   -2.2289   -1.8043 C   0  0  0  0  0
    1.8308    1.5131   -2.6301 C   0  0  0  0  0
   -0.1156    1.4750   -0.6319 C   0  0  0  0  0
   -2.9751   -0.3873   -0.3067 C   0  0  0  0  0
    2.8478   -0.5723   -1.7009 C   0  0  0  0  0
    4.0402    2.2852   -3.3674 C   0  0  0  0  0
    2.3809    1.4939   -5.0454 C   0  0  0  0  0
    5.1722    1.7731   -4.2477 C   0  0  0  0  0
    3.5173    0.9879   -5.9247 C   0  0  0  0  0
   -3.4796   -4.5919   -0.9485 C   0  0  0  0  0
   -2.5508   -0.8069    2.1403 C   0  0  0  0  0
   -3.7304   -2.7131   -3.1840 C   0  0  0  0  0
    5.8638    1.4620   -6.6237 C   0  0  0  0  0
    2.7984    1.5502   -3.6408 N   0  0  0  0  0
   -1.1120    1.4559    0.3905 N   0  0  0  0  0
    4.7442    1.8317   -5.6921 N   0  0  0  0  0
    2.6040   -1.6406   -2.3746 O   0  0  0  0  0
    3.9421   -0.3967   -1.0478 O   0  0  0  0  0
   -3.5966    1.7234    1.0660 O   0  0  0  0  0
   -2.9717    2.0038   -1.3486 O   0  0  0  0  0
   -2.7697    1.3543   -0.0678 S   0  0  0  0  0
  1 10  1  0  0  0
  2 11  1  0  0  0
  3  6  1  0  0  0
  4  7  1  0  0  0
  5  9  1  0  0  0
  6 13  1  0  0  0
  8 12  1  0  0  0
 10 22  1  0  0  0
 11 23  1  0  0  0
 13 25  1  0  0  0
 14 16  1  0  0  0
 14 22  1  0  0  0
 15 17  1  0  0  0
 15 22  1  0  0  0
 16 24  1  0  0  0
 17 24  1  0  0  0
 18  7  1  0  0  0
 19  8  1  0  0  0
 20  9  1  0  0  0
 21 24  1  0  0  0
 29 12  1  0  0  0
 29 23  1  0  0  0
  1  2  2  0  0  0
  3 11  2  0  0  0
  4  8  2  0  0  0
  5 12  2  0  0  0
  6 10  2  0  0  0
  7  9  2  0  0  0
 13 26  2  0  0  0
 29 27  2  0  0  0
 29 28  2  0  0  0
M  CHG  2  24   1  25  -1
M  END
> <rmsd>
0.528393447

$$$$
ZINC64580546


 29 31  0  0  0  0  0  0  0  0999 V2000
   -3.2442   -2.5886    0.4335 C   0  0  0  0  0
   -2.4204   -2.2382   -1.8106 C   0  0  0  0  0
    1.0214    2.8836   -2.1908 C   0  0  0  0  0
   -0.0380    2.7667   -1.2911 C   0  0  0  0  0
   -3.2071   -1.2130    0.6618 C   0  0  0  0  0
   -2.3834   -0.8627   -1.5823 C   0  0  0  0  0
    0.9959    0.8066   -0.3287 C   0  0  0  0  0
    2.0552    0.9235   -1.2286 C   0  0  0  0  0
   -2.8507   -3.1012   -0.8027 C   0  0  0  0  0
    2.0679    1.9620   -2.1597 C   0  0  0  0  0
   -0.0508    1.7283   -0.3599 C   0  0  0  0  0
   -2.7768   -0.3501   -0.3461 C   0  0  0  0  0
    3.1492   -0.0644   -1.1742 C   0  0  0  0  0
    4.2716    2.9154   -2.6660 C   0  0  0  0  0
    2.8449    2.0449   -4.5105 C   0  0  0  0  0
    5.5180    2.5116   -3.4419 C   0  0  0  0  0
    4.0951    1.6476   -5.2849 C   0  0  0  0  0
   -1.4931   -5.1561   -1.3391 C   0  0  0  0  0
   -3.8628   -4.9574   -2.1754 C   0  0  0  0  0
    6.4541    2.3131   -5.7452 C   0  0  0  0  0
   -2.8881   -4.5719   -1.0465 C   0  0  0  0  0
    3.1214    2.0968   -3.0713 N   0  0  0  0  0
   -1.1353    1.6089    0.5609 N   0  0  0  0  0
    5.2259    2.5745   -4.9196 N   0  0  0  0  0
    3.0532   -1.1306   -1.8874 O   0  0  0  0  0
    4.1598    0.1759   -0.4154 O   0  0  0  0  0
   -3.6861    1.6730    0.9979 O   0  0  0  0  0
   -2.8580    2.0602   -1.3397 O   0  0  0  0  0
   -2.7292    1.3955   -0.0572 S   0  0  0  0  0
  1  9  1  0  0  0
  2  6  1  0  0  0
  3 10  1  0  0  0
  4 11  1  0  0  0
  5 12  1  0  0  0
  7  8  1  0  0  0
  8 13  1  0  0  0
 10 22  1  0  0  0
 11 23  1  0  0  0
 13 25  1  0  0  0
 14 16  1  0  0  0
 14 22  1  0  0  0
 15 17  1  0  0  0
 15 22  1  0  0  0
 16 24  1  0  0  0
 17 24  1  0  0  0
 18 21  1  0  0  0
 19 21  1  0  0  0
 20 24  1  0  0  0
 21  9  1  0  0  0
 29 12  1  0  0  0
 29 23  1  0  0  0
  1  5  2  0  0  0
  2  9  2  0  0  0
  3  4  2  0  0  0
  6 12  2  0  0  0
  7 11  2  0  0  0
  8 10  2  0  0  0
 13 26  2  0  0  0
 29 27  2  0  0  0
 29 28  2  0  0  0
M  CHG  2  24   1  25  -1
M  END
> <rmsd>
0.70724231

$$$$
ZINC64580546


 29 31  0  0  0  0  0  0  0  0999 V2000
   -3.5395   -2.5662    0.5395 C   0  0  0  0  0
   -2.9061   -2.3071   -1.7776 C   0  0  0  0  0
    0.8691    2.5243   -2.5715 C   0  0  0  0  0
   -0.1067    2.5010   -1.5751 C   0  0  0  0  0
   -3.3752   -1.1954    0.7377 C   0  0  0  0  0
   -2.7418   -0.9362   -1.5794 C   0  0  0  0  0
    0.8590    0.4769   -0.6766 C   0  0  0  0  0
    1.8347    0.5001   -1.6731 C   0  0  0  0  0
   -3.3048   -3.1221   -0.7182 C   0  0  0  0  0
    1.8398    1.5238   -2.6206 C   0  0  0  0  0
   -0.1118    1.4774   -0.6276 C   0  0  0  0  0
   -2.9764   -0.3803   -0.3218 C   0  0  0  0  0
    2.8496   -0.5699   -1.7023 C   0  0  0  0  0
    4.0529    2.2954   -3.3473 C   0  0  0  0  0
    2.3961    1.5188   -5.0346 C   0  0  0  0  0
    5.1859    1.7863   -4.2280 C   0  0  0  0  0
    3.5335    1.0158   -5.9143 C   0  0  0  0  0
   -2.1661   -5.2832   -1.3401 C   0  0  0  0  0
   -4.5816   -4.9087   -1.9560 C   0  0  0  0  0
    5.8829    1.4889   -6.6042 C   0  0  0  0  0
   -3.4782   -4.5880   -0.9300 C   0  0  0  0  0
    2.8100    1.5651   -3.6286 N   0  0  0  0  0
   -1.1108    1.4540    0.3921 N   0  0  0  0  0
    4.7617    1.8553   -5.6730 N   0  0  0  0  0
    2.6050   -1.6333   -2.3835 O   0  0  0  0  0
    3.9426   -0.4011   -1.0453 O   0  0  0  0  0
   -3.5966    1.7230    1.0630 O   0  0  0  0  0
   -2.9648    2.0174   -1.3482 O   0  0  0  0  0
   -2.7675    1.3593   -0.0711 S   0  0  0  0  0
  1  9  1  0  0  0
  2  6  1  0  0  0
  3 10  1  0  0  0
  4 11  1  0  0  0
  5 12  1  0  0  0
  7  8  1  0  0  0
  8 13  1  0  0  0
 10 22  1  0  0  0
 11 23  1  0  0  0
 13 25  1  0  0  0
 14 16  1  0  0  0
 14 22  1  0  0  0
 15 17  1  0  0  0
 15 22  1  0  0  0
 16 24  1  0  0  0
 17 24  1  0  0  0
 18 21  1  0  0  0
 19 21  1  0  0  0
 20 24  1  0  0  0
 21  9  1  0  0  0
 29 12  1  0  0  0
 29 23  1  0  0  0
  1  5  2  0  0  0
  2  9  2  0  0  0
  3  4  2  0  0  0
  6 12  2  0  0  0
  7 11  2  0  0  0
  8 10  2  0  0  0
 13 26  2  0  0  0
 29 27  2  0  0  0
 29 28  2  0  0  0
M  CHG  2  24   1  25  -1
M  END
> <rmsd>
0.526365578

$$$$
ZINC33253487


 29 30  0  0  0  0  0  0  0  0999 V2000
   -0.1069    2.5015   -1.5744 C   0  0  0  0  0
    0.8687    2.5245   -2.5710 C   0  0  0  0  0
    0.8578    0.4766   -0.6765 C   0  0  0  0  0
   -2.9186   -2.6390    0.5323 C   0  0  0  0  0
   -3.5258   -2.2342   -1.7708 C   0  0  0  0  0
    1.8334    0.4996   -1.6732 C   0  0  0  0  0
   -3.3039   -3.1221   -0.7181 C   0  0  0  0  0
   -2.7553   -1.2678    0.7302 C   0  0  0  0  0
   -3.3625   -0.8631   -1.5729 C   0  0  0  0  0
   -0.1124    1.4775   -0.6271 C   0  0  0  0  0
    1.8389    1.5236   -2.6203 C   0  0  0  0  0
   -2.9772   -0.3800   -0.3224 C   0  0  0  0  0
    2.8484   -0.5702   -1.7026 C   0  0  0  0  0
   -3.4775   -4.5884   -0.9302 C   0  0  0  0  0
   -2.3406   -0.7878    2.0833 C   0  0  0  0  0
   -3.6087    0.0578   -2.7237 C   0  0  0  0  0
    4.2360    4.1875   -3.3409 C   0  0  0  0  0
    1.2049    0.1471   -6.8209 C   0  0  0  0  0
    4.8538    2.9125   -3.8973 C   0  0  0  0  0
    1.6215    0.2298   -5.3592 C   0  0  0  0  0
    4.2141    1.6514   -3.3290 C   0  0  0  0  0
    2.3967    1.5021   -5.0387 C   0  0  0  0  0
   -1.1117    1.4539    0.3924 N   0  0  0  0  0
    2.8126    1.5640   -3.6331 N   0  0  0  0  0
    2.6040   -1.6335   -2.3842 O   0  0  0  0  0
    3.9413   -0.4018   -1.0453 O   0  0  0  0  0
   -3.5975    1.7230    1.0629 O   0  0  0  0  0
   -2.9652    2.0180   -1.3481 O   0  0  0  0  0
   -2.7682    1.3595   -0.0711 S   0  0  0  0  0
  1 10  1  0  0  0
  2 11  1  0  0  0
  3  6  1  0  0  0
  4  7  1  0  0  0
  5  9  1  0  0  0
  6 13  1  0  0  0
  8 12  1  0  0  0
 10 23  1  0  0  0
 11 24  1  0  0  0
 13 25  1  0  0  0
 14  7  1  0  0  0
 15  8  1  0  0  0
 16  9  1  0  0  0
 17 19  1  0  0  0
 18 20  1  0  0  0
 19 21  1  0  0  0
 20 22  1  0  0  0
 21 24  1  0  0  0
 22 24  1  0  0  0
 29 12  1  0  0  0
 29 23  1  0  0  0
  1  2  2  0  0  0
  3 10  2  0  0  0
  4  8  2  0  0  0
  5  7  2  0  0  0
  6 11  2  0  0  0
  9 12  2  0  0  0
 13 26  2  0  0  0
 29 27  2  0  0  0
 29 28  2  0  0  0
M  CHG  1  25  -1
M  END
> <rmsd>
0.526740968

$$$$
ZINC33253487


 29 30  0  0  0  0  0  0  0  0999 V2000
   -0.0380    2.7668   -1.2901 C   0  0  0  0  0
    1.0213    2.8834   -2.1900 C   0  0  0  0  0
    0.9947    0.8058   -0.3282 C   0  0  0  0  0
   -2.6218   -2.6132    0.4841 C   0  0  0  0  0
   -3.0420   -2.2136   -1.8612 C   0  0  0  0  0
    2.0541    0.9224   -1.2282 C   0  0  0  0  0
   -2.8500   -3.1012   -0.8024 C   0  0  0  0  0
   -2.5857   -1.2374    0.7120 C   0  0  0  0  0
   -3.0057   -0.8379   -1.6333 C   0  0  0  0  0
   -0.0513    1.7281   -0.3592 C   0  0  0  0  0
    2.0673    1.9612   -2.1590 C   0  0  0  0  0
   -2.7776   -0.3499   -0.3467 C   0  0  0  0  0
    3.1481   -0.0654   -1.1740 C   0  0  0  0  0
   -2.8877   -4.5722   -1.0464 C   0  0  0  0  0
   -2.3376   -0.7520    2.1035 C   0  0  0  0  0
   -3.2152    0.0826   -2.7918 C   0  0  0  0  0
    4.3049    4.8147   -2.6205 C   0  0  0  0  0
    1.9369    0.6183   -6.4159 C   0  0  0  0  0
    5.0698    3.6016   -3.1306 C   0  0  0  0  0
    2.2079    0.7056   -4.9206 C   0  0  0  0  0
    4.4808    2.2847   -2.6393 C   0  0  0  0  0
    2.8478    2.0277   -4.5142 C   0  0  0  0  0
   -1.1362    1.6087    0.5613 N   0  0  0  0  0
    3.1250    2.0953   -3.0751 N   0  0  0  0  0
    3.0523   -1.1314   -1.8875 O   0  0  0  0  0
    4.1585    0.1745   -0.4148 O   0  0  0  0  0
   -3.6870    1.6731    0.9975 O   0  0  0  0  0
   -2.8582    2.0606   -1.3397 O   0  0  0  0  0
   -2.7299    1.3956   -0.0573 S   0  0  0  0  0
  1 10  1  0  0  0
  2 11  1  0  0  0
  3  6  1  0  0  0
  4  7  1  0  0  0
  5  9  1  0  0  0
  6 13  1  0  0  0
  8 12  1  0  0  0
 10 23  1  0  0  0
 11 24  1  0  0  0
 13 25  1  0  0  0
 14  7  1  0  0  0
 15  8  1  0  0  0
 16  9  1  0  0  0
 17 19  1  0  0  0
 18 20  1  0  0  0
 19 21  1  0  0  0
 20 22  1  0  0  0
 21 24  1  0  0  0
 22 24  1  0  0  0
 29 12  1  0  0  0
 29 23  1  0  0  0
  1  2  2  0  0  0
  3 10  2  0  0  0
  4  8  2  0  0  0
  5  7  2  0  0  0
  6 11  2  0  0  0
  9 12  2  0  0  0
 13 26  2  0  0  0
 29 27  2  0  0  0
 29 28  2  0  0  0
M  CHG  1  25  -1
M  END
> <rmsd>
0.707542717

$$$$
ZINC33253581


 29 30  0  0  0  0  0  0  0  0999 V2000
   -3.5400   -2.5659    0.5397 C   0  0  0  0  0
   -2.9063   -2.3071   -1.7773 C   0  0  0  0  0
   -0.1071    2.5013   -1.5750 C   0  0  0  0  0
    0.8685    2.5241   -2.5716 C   0  0  0  0  0
   -3.3758   -1.1950    0.7379 C   0  0  0  0  0
   -2.7422   -0.9361   -1.5792 C   0  0  0  0  0
    0.8581    0.4770   -0.6764 C   0  0  0  0  0
    1.8335    0.4997   -1.6731 C   0  0  0  0  0
   -3.3051   -3.1219   -0.7178 C   0  0  0  0  0
   -0.1123    1.4777   -0.6273 C   0  0  0  0  0
    1.8388    1.5232   -2.6207 C   0  0  0  0  0
   -2.9769   -0.3801   -0.3216 C   0  0  0  0  0
    2.8487   -0.5701   -1.7022 C   0  0  0  0  0
   -3.4785   -4.5878   -0.9294 C   0  0  0  0  0
    5.7367    1.3674   -3.0158 C   0  0  0  0  0
    5.7644    3.8707   -2.7769 C   0  0  0  0  0
    1.3550    1.5434   -6.2359 C   0  0  0  0  0
    1.8443   -0.9202   -6.3611 C   0  0  0  0  0
    3.7067    2.7253   -3.7282 C   0  0  0  0  0
    2.9695    0.4918   -4.5746 C   0  0  0  0  0
    4.8908    2.6156   -2.7600 C   0  0  0  0  0
    1.7169    0.2910   -5.4361 C   0  0  0  0  0
   -1.1115    1.4544    0.3922 N   0  0  0  0  0
    2.7970    1.5628   -3.6175 N   0  0  0  0  0
    2.6044   -1.6336   -2.3834 O   0  0  0  0  0
    3.9416   -0.4012   -1.0452 O   0  0  0  0  0
   -3.5973    1.7234    1.0629 O   0  0  0  0  0
   -2.9653    2.0176   -1.3483 O   0  0  0  0  0
   -2.7681    1.3595   -0.0709 S   0  0  0  0  0
  1  9  1  0  0  0
  2  6  1  0  0  0
  3 10  1  0  0  0
  4 11  1  0  0  0
  5 12  1  0  0  0
  7  8  1  0  0  0
  8 13  1  0  0  0
 10 23  1  0  0  0
 11 24  1  0  0  0
 13 25  1  0  0  0
 14  9  1  0  0  0
 15 21  1  0  0  0
 16 21  1  0  0  0
 17 22  1  0  0  0
 18 22  1  0  0  0
 19 21  1  0  0  0
 19 24  1  0  0  0
 20 22  1  0  0  0
 20 24  1  0  0  0
 29 12  1  0  0  0
 29 23  1  0  0  0
  1  5  2  0  0  0
  2  9  2  0  0  0
  3  4  2  0  0  0
  6 12  2  0  0  0
  7 10  2  0  0  0
  8 11  2  0  0  0
 13 26  2  0  0  0
 29 27  2  0  0  0
 29 28  2  0  0  0
M  CHG  1  25  -1
M  END
> <rmsd>
0.526346982

$$$$
ZINC33253581


 29 30  0  0  0  0  0  0  0  0999 V2000
   -3.2446   -2.5882    0.4336 C   0  0  0  0  0
   -2.4205   -2.2381   -1.8104 C   0  0  0  0  0
   -0.0385    2.7672   -1.2909 C   0  0  0  0  0
    1.0207    2.8837   -2.1910 C   0  0  0  0  0
   -3.2077   -1.2127    0.6619 C   0  0  0  0  0
   -2.3837   -0.8625   -1.5822 C   0  0  0  0  0
    0.9949    0.8068   -0.3286 C   0  0  0  0  0
    2.0540    0.9233   -1.2288 C   0  0  0  0  0
   -2.8509   -3.1010   -0.8025 C   0  0  0  0  0
   -0.0514    1.7287   -0.3597 C   0  0  0  0  0
    2.0669    1.9617   -2.1599 C   0  0  0  0  0
   -2.7772   -0.3499   -0.3460 C   0  0  0  0  0
    3.1483   -0.0642   -1.1743 C   0  0  0  0  0
   -2.8882   -4.5717   -1.0461 C   0  0  0  0  0
    5.9848    2.1143   -2.1882 C   0  0  0  0  0
    5.7935    4.6075   -1.9193 C   0  0  0  0  0
    1.9211    2.0121   -5.8041 C   0  0  0  0  0
    2.6119   -0.4038   -5.9107 C   0  0  0  0  0
    3.9294    3.3247   -3.0730 C   0  0  0  0  0
    3.4518    1.0572   -4.0104 C   0  0  0  0  0
    5.0234    3.2886   -1.9989 C   0  0  0  0  0
    2.3043    0.7765   -4.9882 C   0  0  0  0  0
   -1.1361    1.6094    0.5610 N   0  0  0  0  0
    3.1075    2.0937   -3.0616 N   0  0  0  0  0
    3.0526   -1.1306   -1.8875 O   0  0  0  0  0
    4.1588    0.1761   -0.4154 O   0  0  0  0  0
   -3.6869    1.6733    0.9977 O   0  0  0  0  0
   -2.8586    2.0603   -1.3398 O   0  0  0  0  0
   -2.7299    1.3957   -0.0571 S   0  0  0  0  0
  1  9  1  0  0  0
  2  6  1  0  0  0
  3 10  1  0  0  0
  4 11  1  0  0  0
  5 12  1  0  0  0
  7  8  1  0  0  0
  8 13  1  0  0  0
 10 23  1  0  0  0
 11 24  1  0  0  0
 13 25  1  0  0  0
 14  9  1  0  0  0
 15 21  1  0  0  0
 16 21  1  0  0  0
 17 22  1  0  0  0
 18 22  1  0  0  0
 19 21  1  0  0  0
 19 24  1  0  0  0
 20 22  1  0  0  0
 20 24  1  0  0  0
 29 12  1  0  0  0
 29 23  1  0  0  0
  1  5  2  0  0  0
  2  9  2  0  0  0
  3  4  2  0  0  0
  6 12  2  0  0  0
  7 10  2  0  0  0
  8 11  2  0  0  0
 13 26  2  0  0  0
 29 27  2  0  0  0
 29 28  2  0  0  0
M  CHG  1  25  -1
M  END
> <rmsd>
0.707453489

$$$$
ZINC08834390


 21 22  0  0  0  0  0  0  0  0999 V2000
   -0.1052    2.4984   -1.5732 C   0  0  0  0  0
    0.8715    2.5203   -2.5688 C   0  0  0  0  0
   -3.3783   -1.1939    0.7395 C   0  0  0  0  0
   -2.7435   -0.9375   -1.5776 C   0  0  0  0  0
   -3.5442   -2.5647    0.5423 C   0  0  0  0  0
   -2.9093   -2.3084   -1.7746 C   0  0  0  0  0
    0.8583    0.4742   -0.6725 C   0  0  0  0  0
    1.8350    0.4961   -1.6681 C   0  0  0  0  0
   -0.1119    1.4754   -0.6250 C   0  0  0  0  0
    1.8416    1.5192   -2.6162 C   0  0  0  0  0
   -2.9779   -0.3803   -0.3205 C   0  0  0  0  0
   -3.3097   -3.1219   -0.7147 C   0  0  0  0  0
    2.8527   -0.5694   -1.7034 C   0  0  0  0  0
   -1.1118    1.4533    0.3938 N   0  0  0  0  0
    2.6108   -1.6322   -2.3875 O   0  0  0  0  0
    3.9476   -0.3998   -1.0487 O   0  0  0  0  0
   -3.5979    1.7244    1.0623 O   0  0  0  0  0
   -2.9639    2.0168   -1.3485 O   0  0  0  0  0
    2.7875    1.5580   -3.5965 O   0  0  0  0  0
   -2.7682    1.3593   -0.0707 S   0  0  0  0  0
   -3.5579   -5.1635   -1.0087 I   0  0  0  0  0
  1  9  1  0  0  0
  2 10  1  0  0  0
  3  5  1  0  0  0
  4 11  1  0  0  0
  6 12  1  0  0  0
  7  8  1  0  0  0
  8 13  1  0  0  0
  9 14  1  0  0  0
 10 19  1  0  0  0
 12 21  1  0  0  0
 13 15  1  0  0  0
 20 11  1  0  0  0
 20 14  1  0  0  0
  1  2  2  0  0  0
  3 11  2  0  0  0
  4  6  2  0  0  0
  5 12  2  0  0  0
  7  9  2  0  0  0
  8 10  2  0  0  0
 13 16  2  0  0  0
 20 17  2  0  0  0
 20 18  2  0  0  0
M  CHG  1  15  -1
M  END
> <rmsd>
0.52326715

$$$$
ZINC08834390


 21 22  0  0  0  0  0  0  0  0999 V2000
   -0.0367    2.7641   -1.2892 C   0  0  0  0  0
    1.0234    2.8797   -2.1882 C   0  0  0  0  0
   -3.2107   -1.2117    0.6636 C   0  0  0  0  0
   -2.3855   -0.8642   -1.5804 C   0  0  0  0  0
   -3.2495   -2.5874    0.4363 C   0  0  0  0  0
   -2.4243   -2.2399   -1.8077 C   0  0  0  0  0
    0.9948    0.8038   -0.3248 C   0  0  0  0  0
    2.0549    0.9193   -1.2238 C   0  0  0  0  0
   -0.0511    1.7262   -0.3575 C   0  0  0  0  0
    2.0693    1.9574   -2.1555 C   0  0  0  0  0
   -2.7787   -0.3501   -0.3448 C   0  0  0  0  0
   -2.8563   -3.1014   -0.7993 C   0  0  0  0  0
    3.1520   -0.0637   -1.1753 C   0  0  0  0  0
   -1.1365    1.6082    0.5625 N   0  0  0  0  0
    3.0588   -1.1291   -1.8911 O   0  0  0  0  0
    4.1647    0.1775   -0.4187 O   0  0  0  0  0
   -3.6875    1.6745    0.9973 O   0  0  0  0  0
   -2.8573    2.0597   -1.3398 O   0  0  0  0  0
    3.0962    2.0871   -3.0420 O   0  0  0  0  0
   -2.7301    1.3956   -0.0567 S   0  0  0  0  0
   -2.9152   -5.1502   -1.1384 I   0  0  0  0  0
  1  9  1  0  0  0
  2 10  1  0  0  0
  3  5  1  0  0  0
  4 11  1  0  0  0
  6 12  1  0  0  0
  7  8  1  0  0  0
  8 13  1  0  0  0
  9 14  1  0  0  0
 10 19  1  0  0  0
 12 21  1  0  0  0
 13 15  1  0  0  0
 20 11  1  0  0  0
 20 14  1  0  0  0
  1  2  2  0  0  0
  3 11  2  0  0  0
  4  6  2  0  0  0
  5 12  2  0  0  0
  7  9  2  0  0  0
  8 10  2  0  0  0
 13 16  2  0  0  0
 20 17  2  0  0  0
 20 18  2  0  0  0
M  CHG  1  15  -1
M  END
> <rmsd>
0.704006851

$$$$
ZINC16216411


 31 34  0  0  0  0  0  0  0  0999 V2000
   -3.9684    4.4615   -3.2468 C   0  0  0  0  0
   -4.8466    4.6321   -2.1591 C   0  0  0  0  0
   -2.9625    3.4921   -3.2120 C   0  0  0  0  0
   -4.7360    3.8363   -1.0156 C   0  0  0  0  0
   -3.2584   -0.9354   -1.5902 C   0  0  0  0  0
   -2.3794   -1.2291    0.6409 C   0  0  0  0  0
    2.8279    1.3036   -0.9702 C   0  0  0  0  0
   -3.6147   -2.2834   -1.6273 C   0  0  0  0  0
   -2.7357   -2.5772    0.6038 C   0  0  0  0  0
    2.2949    2.4749   -0.4323 C   0  0  0  0  0
    0.7307    0.1697   -0.5793 C   0  0  0  0  0
   -2.8697    2.7130   -2.0752 C   0  0  0  0  0
   -3.7384    2.8810   -0.9998 C   0  0  0  0  0
   -2.6408   -0.4082   -0.4560 C   0  0  0  0  0
    0.1977    1.3409   -0.0413 C   0  0  0  0  0
    2.0459    0.1509   -1.0437 C   0  0  0  0  0
   -3.3533   -3.1043   -0.5303 C   0  0  0  0  0
    0.9797    2.4937    0.0323 C   0  0  0  0  0
   -1.9111    1.6422   -1.7840 C   0  0  0  0  0
   -3.4046    1.9346    0.0687 C   0  0  0  0  0
   -2.2534    1.0588   -0.4157 C   0  0  0  0  0
   -3.4063   -5.2023    0.5883 C   0  0  0  0  0
    0.6408    3.8505    1.9557 C   0  0  0  0  0
   -1.1120    1.3465    0.4163 N   0  0  0  0  0
    2.5890   -1.0411   -1.5923 N   0  0  0  0  0
    3.7740   -1.0355   -2.0047 O   0  0  0  0  0
   -0.9933    1.3237   -2.5172 O   0  0  0  0  0
   -3.9483    1.9073    1.1572 O   0  0  0  0  0
    1.8691   -2.0672   -1.6491 O   0  0  0  0  0
   -3.7022   -4.4194   -0.5672 O   0  0  0  0  0
    0.4775    3.6483    0.5536 O   0  0  0  0  0
  1  2  1  0  0  0
  3 12  1  0  0  0
  4 13  1  0  0  0
  5 14  1  0  0  0
  6  9  1  0  0  0
  7 16  1  0  0  0
  8 17  1  0  0  0
 10 18  1  0  0  0
 11 15  1  0  0  0
 12 19  1  0  0  0
 13 20  1  0  0  0
 15 24  1  0  0  0
 16 25  1  0  0  0
 17 30  1  0  0  0
 18 31  1  0  0  0
 21 14  1  0  0  0
 21 19  1  0  0  0
 21 20  1  0  0  0
 21 24  1  0  0  0
 22 30  1  0  0  0
 23 31  1  0  0  0
 25 26  1  0  0  0
  1  3  2  0  0  0
  2  4  2  0  0  0
  5  8  2  0  0  0
  6 14  2  0  0  0
  7 10  2  0  0  0
  9 17  2  0  0  0
 11 16  2  0  0  0
 12 13  2  0  0  0
 15 18  2  0  0  0
 19 27  2  0  0  0
 20 28  2  0  0  0
 25 29  2  0  0  0
M  CHG  2  25   1  26  -1
M  END
> <rmsd>
0.553830504

$$$$
ZINC35397703


 29 31  0  0  0  0  0  0  0  0999 V2000
   -2.4338   -2.2561   -1.7857 C   0  0  0  0  0
   -3.2801   -2.5837    0.4534 C   0  0  0  0  0
   -2.3860   -0.8795   -1.5662 C   0  0  0  0  0
   -3.2324   -1.2071    0.6729 C   0  0  0  0  0
    1.0049    0.7851   -0.3092 C   0  0  0  0  0
    0.0119    2.7193   -1.2731 C   0  0  0  0  0
    2.0574    0.9144   -1.2087 C   0  0  0  0  0
   -2.8809   -3.1083   -0.7758 C   0  0  0  0  0
   -0.0412    1.7006   -0.3354 C   0  0  0  0  0
   -2.7853   -0.3550   -0.3370 C   0  0  0  0  0
    2.0163    1.9683   -2.1073 C   0  0  0  0  0
    3.1644   -0.0568   -1.1789 C   0  0  0  0  0
    4.2277    2.9200   -2.6174 C   0  0  0  0  0
    2.8067    2.0584   -4.4572 C   0  0  0  0  0
    5.4379    2.5452   -3.4650 C   0  0  0  0  0
    4.0931    1.7301   -5.2070 C   0  0  0  0  0
   -1.5212   -5.1509   -1.3457 C   0  0  0  0  0
   -3.8771   -4.9290   -2.2038 C   0  0  0  0  0
   -3.4533   -5.4340    0.1935 C   0  0  0  0  0
   -2.9340   -4.5800   -1.0107 C   0  0  0  0  0
    1.0173    2.8774   -2.1628 N   0  0  0  0  0
    3.0716    2.1047   -3.0151 N   0  0  0  0  0
   -1.1338    1.5942    0.5733 N   0  0  0  0  0
    3.0775   -1.1163   -1.9050 O   0  0  0  0  0
    4.1810    0.1868   -0.4276 O   0  0  0  0  0
   -3.6901    1.6840    0.9858 O   0  0  0  0  0
   -2.8354    2.0499   -1.3455 O   0  0  0  0  0
    5.1260    2.6494   -4.8540 O   0  0  0  0  0
   -2.7253    1.3918   -0.0578 S   0  0  0  0  0
  1  8  1  0  0  0
  2  4  1  0  0  0
  3 10  1  0  0  0
  5  9  1  0  0  0
  6 21  1  0  0  0
  7 11  1  0  0  0
  7 12  1  0  0  0
  9 23  1  0  0  0
 11 22  1  0  0  0
 12 24  1  0  0  0
 13 15  1  0  0  0
 13 22  1  0  0  0
 14 16  1  0  0  0
 14 22  1  0  0  0
 15 28  1  0  0  0
 16 28  1  0  0  0
 17 20  1  0  0  0
 18 20  1  0  0  0
 19 20  1  0  0  0
 20  8  1  0  0  0
 29 10  1  0  0  0
 29 23  1  0  0  0
  1  3  2  0  0  0
  2  8  2  0  0  0
  4 10  2  0  0  0
  5  7  2  0  0  0
  6  9  2  0  0  0
 11 21  2  0  0  0
 12 25  2  0  0  0
 29 26  2  0  0  0
 29 27  2  0  0  0
M  CHG  1  24  -1
M  END
> <rmsd>
0.688689768

$$$$
ZINC35397703


 29 31  0  0  0  0  0  0  0  0999 V2000
   -2.9168   -2.3224   -1.7542 C   0  0  0  0  0
   -3.5707   -2.5592    0.5595 C   0  0  0  0  0
   -2.7433   -0.9514   -1.5649 C   0  0  0  0  0
   -3.3972   -1.1882    0.7489 C   0  0  0  0  0
    0.8686    0.4572   -0.6595 C   0  0  0  0  0
   -0.0599    2.4526   -1.5610 C   0  0  0  0  0
    1.8383    0.4946   -1.6553 C   0  0  0  0  0
   -3.3305   -3.1263   -0.6920 C   0  0  0  0  0
   -0.1022    1.4512   -0.6045 C   0  0  0  0  0
   -2.9835   -0.3843   -0.3134 C   0  0  0  0  0
    1.7935    1.5389   -2.5649 C   0  0  0  0  0
    2.8656   -0.5595   -1.7115 C   0  0  0  0  0
    4.0132    2.3099   -3.2959 C   0  0  0  0  0
    2.3632    1.5422   -4.9795 C   0  0  0  0  0
    5.1058    1.8330   -4.2458 C   0  0  0  0  0
    3.5442    1.1067   -5.8399 C   0  0  0  0  0
   -2.1910   -5.2746   -1.3495 C   0  0  0  0  0
   -4.5935   -4.8790   -1.9881 C   0  0  0  0  0
   -3.9853   -5.3899    0.3679 C   0  0  0  0  0
   -3.5181   -4.5918   -0.8945 C   0  0  0  0  0
    0.8662    2.5224   -2.5433 N   0  0  0  0  0
    2.7658    1.5831   -3.5695 N   0  0  0  0  0
   -1.1090    1.4398    0.4040 N   0  0  0  0  0
    2.6297   -1.6166   -2.4072 O   0  0  0  0  0
    3.9642   -0.3879   -1.0628 O   0  0  0  0  0
   -3.6007    1.7330    1.0513 O   0  0  0  0  0
   -2.9442    2.0063   -1.3557 O   0  0  0  0  0
    4.6732    1.9464   -5.6013 O   0  0  0  0  0
   -2.7639    1.3554   -0.0723 S   0  0  0  0  0
  1  8  1  0  0  0
  2  4  1  0  0  0
  3 10  1  0  0  0
  5  9  1  0  0  0
  6 21  1  0  0  0
  7 11  1  0  0  0
  7 12  1  0  0  0
  9 23  1  0  0  0
 11 22  1  0  0  0
 12 24  1  0  0  0
 13 15  1  0  0  0
 13 22  1  0  0  0
 14 16  1  0  0  0
 14 22  1  0  0  0
 15 28  1  0  0  0
 16 28  1  0  0  0
 17 20  1  0  0  0
 18 20  1  0  0  0
 19 20  1  0  0  0
 20  8  1  0  0  0
 29 10  1  0  0  0
 29 23  1  0  0  0
  1  3  2  0  0  0
  2  8  2  0  0  0
  4 10  2  0  0  0
  5  7  2  0  0  0
  6  9  2  0  0  0
 11 21  2  0  0  0
 12 25  2  0  0  0
 29 26  2  0  0  0
 29 27  2  0  0  0
M  CHG  1  24  -1
M  END
> <rmsd>
0.509645641

$$$$
ZINC35397585


 29 31  0  0  0  0  0  0  0  0999 V2000
   -2.9161   -2.3214   -1.7550 C   0  0  0  0  0
   -3.5690   -2.5596    0.5589 C   0  0  0  0  0
   -2.7436   -0.9504   -1.5652 C   0  0  0  0  0
   -3.3964   -1.1886    0.7487 C   0  0  0  0  0
    0.8683    0.4573   -0.6601 C   0  0  0  0  0
   -0.0602    2.4528   -1.5615 C   0  0  0  0  0
    1.8379    0.4946   -1.6560 C   0  0  0  0  0
   -0.1024    1.4513   -0.6050 C   0  0  0  0  0
   -3.3289   -3.1260   -0.6929 C   0  0  0  0  0
   -2.9837   -0.3839   -0.3133 C   0  0  0  0  0
    1.7931    1.5387   -2.5657 C   0  0  0  0  0
    2.8651   -0.5596   -1.7123 C   0  0  0  0  0
    2.4604    4.0183   -5.7027 C   0  0  0  0  0
    3.8223    4.2387   -5.0410 C   0  0  0  0  0
    2.3523    2.7406   -6.5378 C   0  0  0  0  0
    3.9126    3.7947   -3.5812 C   0  0  0  0  0
    1.7042    1.5540   -5.8248 C   0  0  0  0  0
    4.0383    2.2861   -3.3810 C   0  0  0  0  0
    2.6107    0.8393   -4.8252 C   0  0  0  0  0
   -3.2335   -4.9769   -2.1833 C   0  0  0  0  0
    0.8658    2.5223   -2.5440 N   0  0  0  0  0
    2.7653    1.5828   -3.5705 N   0  0  0  0  0
   -1.1091    1.4401    0.4035 N   0  0  0  0  0
    2.6291   -1.6168   -2.4079 O   0  0  0  0  0
    3.9637   -0.3880   -1.0636 O   0  0  0  0  0
   -3.6006    1.7335    1.0513 O   0  0  0  0  0
   -2.9445    2.0066   -1.3558 O   0  0  0  0  0
   -3.4969   -4.4639   -0.8782 O   0  0  0  0  0
   -2.7640    1.3557   -0.0724 S   0  0  0  0  0
  1  9  1  0  0  0
  2  4  1  0  0  0
  3 10  1  0  0  0
  5  8  1  0  0  0
  6 21  1  0  0  0
  7 11  1  0  0  0
  7 12  1  0  0  0
  8 23  1  0  0  0
  9 28  1  0  0  0
 11 22  1  0  0  0
 12 24  1  0  0  0
 13 14  1  0  0  0
 13 15  1  0  0  0
 14 16  1  0  0  0
 15 17  1  0  0  0
 16 18  1  0  0  0
 17 19  1  0  0  0
 18 22  1  0  0  0
 19 22  1  0  0  0
 20 28  1  0  0  0
 29 10  1  0  0  0
 29 23  1  0  0  0
  1  3  2  0  0  0
  2  9  2  0  0  0
  4 10  2  0  0  0
  5  7  2  0  0  0
  6  8  2  0  0  0
 11 21  2  0  0  0
 12 25  2  0  0  0
 29 26  2  0  0  0
 29 27  2  0  0  0
M  CHG  1  24  -1
M  END
> <rmsd>
0.510536551

$$$$
ZINC35397585


 29 31  0  0  0  0  0  0  0  0999 V2000
   -2.4331   -2.2549   -1.7865 C   0  0  0  0  0
   -3.2783   -2.5840    0.4529 C   0  0  0  0  0
   -2.3864   -0.8784   -1.5666 C   0  0  0  0  0
   -3.2315   -1.2074    0.6727 C   0  0  0  0  0
    1.0046    0.7853   -0.3099 C   0  0  0  0  0
    0.0115    2.7197   -1.2736 C   0  0  0  0  0
    2.0569    0.9146   -1.2095 C   0  0  0  0  0
   -0.0416    1.7009   -0.3360 C   0  0  0  0  0
   -2.8791   -3.1078   -0.7768 C   0  0  0  0  0
   -2.7856   -0.3545   -0.3370 C   0  0  0  0  0
    2.0159    1.9685   -2.1082 C   0  0  0  0  0
    3.1639   -0.0566   -1.1800 C   0  0  0  0  0
    2.7773    4.5478   -5.1416 C   0  0  0  0  0
    4.0502    4.8600   -4.3521 C   0  0  0  0  0
    2.8474    3.2808   -5.9968 C   0  0  0  0  0
    4.0384    4.3981   -2.8951 C   0  0  0  0  0
    2.2301    2.0355   -5.3608 C   0  0  0  0  0
    4.2621    2.9002   -2.7001 C   0  0  0  0  0
    3.0925    1.3744   -4.2879 C   0  0  0  0  0
   -2.5013   -4.9189   -2.2712 C   0  0  0  0  0
    1.0168    2.8776   -2.1635 N   0  0  0  0  0
    3.0711    2.1050   -3.0163 N   0  0  0  0  0
   -1.1338    1.5945    0.5729 N   0  0  0  0  0
    3.0769   -1.1161   -1.9060 O   0  0  0  0  0
    4.1806    0.1870   -0.4288 O   0  0  0  0  0
   -3.6902    1.6845    0.9859 O   0  0  0  0  0
   -2.8359    2.0503   -1.3456 O   0  0  0  0  0
   -2.9243   -4.4510   -0.9914 O   0  0  0  0  0
   -2.7256    1.3922   -0.0579 S   0  0  0  0  0
  1  9  1  0  0  0
  2  4  1  0  0  0
  3 10  1  0  0  0
  5  8  1  0  0  0
  6 21  1  0  0  0
  7 11  1  0  0  0
  7 12  1  0  0  0
  8 23  1  0  0  0
  9 28  1  0  0  0
 11 22  1  0  0  0
 12 24  1  0  0  0
 13 14  1  0  0  0
 13 15  1  0  0  0
 14 16  1  0  0  0
 15 17  1  0  0  0
 16 18  1  0  0  0
 17 19  1  0  0  0
 18 22  1  0  0  0
 19 22  1  0  0  0
 20 28  1  0  0  0
 29 10  1  0  0  0
 29 23  1  0  0  0
  1  3  2  0  0  0
  2  9  2  0  0  0
  4 10  2  0  0  0
  5  7  2  0  0  0
  6  8  2  0  0  0
 11 21  2  0  0  0
 12 25  2  0  0  0
 29 26  2  0  0  0
 29 27  2  0  0  0
M  CHG  1  24  -1
M  END
> <rmsd>
0.689481854

$$$$
ZINC35397438


 29 31  0  0  0  0  0  0  0  0999 V2000
   -3.2805   -2.5841    0.4531 C   0  0  0  0  0
   -2.4353   -2.2558   -1.7863 C   0  0  0  0  0
   -3.2324   -1.2076    0.6731 C   0  0  0  0  0
   -2.3873   -0.8792   -1.5663 C   0  0  0  0  0
    1.0044    0.7849   -0.3095 C   0  0  0  0  0
    0.0113    2.7192   -1.2732 C   0  0  0  0  0
    2.0567    0.9143   -1.2091 C   0  0  0  0  0
   -0.0417    1.7005   -0.3356 C   0  0  0  0  0
   -2.8818   -3.1082   -0.7766 C   0  0  0  0  0
   -2.7858   -0.3550   -0.3367 C   0  0  0  0  0
    2.0156    1.9681   -2.1077 C   0  0  0  0  0
    3.1638   -0.0569   -1.1795 C   0  0  0  0  0
    4.2935    4.1278   -4.9077 C   0  0  0  0  0
    3.6858    3.1938   -5.9532 C   0  0  0  0  0
    5.0883    3.3921   -3.8287 C   0  0  0  0  0
    2.6025    2.2543   -5.4270 C   0  0  0  0  0
    4.2396    2.9115   -2.6500 C   0  0  0  0  0
    3.0688    1.3627   -4.2781 C   0  0  0  0  0
   -2.1170   -6.5991   -0.3113 C   0  0  0  0  0
   -2.7419   -5.2971    0.1426 C   0  0  0  0  0
    1.0165    2.8772   -2.1632 N   0  0  0  0  0
    3.0718    2.1047   -3.0166 N   0  0  0  0  0
   -1.1341    1.5941    0.5733 N   0  0  0  0  0
    3.0768   -1.1164   -1.9055 O   0  0  0  0  0
    4.1804    0.1867   -0.4283 O   0  0  0  0  0
   -3.6904    1.6840    0.9862 O   0  0  0  0  0
   -2.8361    2.0498   -1.3452 O   0  0  0  0  0
   -2.9291   -4.4513   -0.9912 O   0  0  0  0  0
   -2.7258    1.3917   -0.0575 S   0  0  0  0  0
  1  9  1  0  0  0
  2  4  1  0  0  0
  3 10  1  0  0  0
  5  8  1  0  0  0
  6 21  1  0  0  0
  7 11  1  0  0  0
  7 12  1  0  0  0
  8 23  1  0  0  0
  9 28  1  0  0  0
 11 22  1  0  0  0
 12 24  1  0  0  0
 13 14  1  0  0  0
 13 15  1  0  0  0
 14 16  1  0  0  0
 15 17  1  0  0  0
 16 18  1  0  0  0
 17 22  1  0  0  0
 18 22  1  0  0  0
 19 20  1  0  0  0
 20 28  1  0  0  0
 29 10  1  0  0  0
 29 23  1  0  0  0
  1  3  2  0  0  0
  2  9  2  0  0  0
  4 10  2  0  0  0
  5  7  2  0  0  0
  6  8  2  0  0  0
 11 21  2  0  0  0
 12 25  2  0  0  0
 29 26  2  0  0  0
 29 27  2  0  0  0
M  CHG  1  24  -1
M  END
> <rmsd>
0.68887198

$$$$
ZINC35397438


 29 31  0  0  0  0  0  0  0  0999 V2000
   -3.5711   -2.5595    0.5593 C   0  0  0  0  0
   -2.9179   -2.3220   -1.7546 C   0  0  0  0  0
   -3.3972   -1.1887    0.7491 C   0  0  0  0  0
   -2.7441   -0.9511   -1.5648 C   0  0  0  0  0
    0.8683    0.4571   -0.6592 C   0  0  0  0  0
   -0.0603    2.4525   -1.5608 C   0  0  0  0  0
    1.8379    0.4946   -1.6550 C   0  0  0  0  0
   -0.1025    1.4511   -0.6042 C   0  0  0  0  0
   -3.3313   -3.1262   -0.6926 C   0  0  0  0  0
   -2.9838   -0.3844   -0.3130 C   0  0  0  0  0
    1.7931    1.5388   -2.5647 C   0  0  0  0  0
    2.8652   -0.5596   -1.7111 C   0  0  0  0  0
    3.9558    3.4844   -5.6028 C   0  0  0  0  0
    3.1826    2.5895   -6.5702 C   0  0  0  0  0
    4.7900    2.7006   -4.5894 C   0  0  0  0  0
    2.0850    1.7428   -5.9288 C   0  0  0  0  0
    4.0219    2.3002   -3.3284 C   0  0  0  0  0
    2.5878    0.8300   -4.8125 C   0  0  0  0  0
   -2.7955   -6.6609   -0.2380 C   0  0  0  0  0
   -3.2734   -5.3095    0.2487 C   0  0  0  0  0
    0.8658    2.5222   -2.5432 N   0  0  0  0  0
    2.7664    1.5830   -3.5703 N   0  0  0  0  0
   -1.1094    1.4399    0.4042 N   0  0  0  0  0
    2.6294   -1.6167   -2.4068 O   0  0  0  0  0
    3.9638   -0.3879   -1.0624 O   0  0  0  0  0
   -3.6010    1.7330    1.0516 O   0  0  0  0  0
   -2.9446    2.0062   -1.3555 O   0  0  0  0  0
   -3.5012   -4.4638   -0.8778 O   0  0  0  0  0
   -2.7642    1.3553   -0.0720 S   0  0  0  0  0
  1  9  1  0  0  0
  2  4  1  0  0  0
  3 10  1  0  0  0
  5  8  1  0  0  0
  6 21  1  0  0  0
  7 11  1  0  0  0
  7 12  1  0  0  0
  8 23  1  0  0  0
  9 28  1  0  0  0
 11 22  1  0  0  0
 12 24  1  0  0  0
 13 14  1  0  0  0
 13 15  1  0  0  0
 14 16  1  0  0  0
 15 17  1  0  0  0
 16 18  1  0  0  0
 17 22  1  0  0  0
 18 22  1  0  0  0
 19 20  1  0  0  0
 20 28  1  0  0  0
 29 10  1  0  0  0
 29 23  1  0  0  0
  1  3  2  0  0  0
  2  9  2  0  0  0
  4 10  2  0  0  0
  5  7  2  0  0  0
  6  8  2  0  0  0
 11 21  2  0  0  0
 12 25  2  0  0  0
 29 26  2  0  0  0
 29 27  2  0  0  0
M  CHG  1  24  -1
M  END
> <rmsd>
0.509901166

$$$$
ZINC64843261


 29 31  0  0  0  0  0  0  0  0999 V2000
   -3.5707   -2.5598    0.5593 C   0  0  0  0  0
   -2.9179   -2.3224   -1.7548 C   0  0  0  0  0
   -3.3969   -1.1889    0.7490 C   0  0  0  0  0
   -2.7441   -0.9514   -1.5651 C   0  0  0  0  0
    0.8683    0.4569   -0.6599 C   0  0  0  0  0
   -0.0604    2.4522   -1.5615 C   0  0  0  0  0
    1.8379    0.4943   -1.6558 C   0  0  0  0  0
   -0.1025    1.4508   -0.6048 C   0  0  0  0  0
   -3.3311   -3.1266   -0.6927 C   0  0  0  0  0
   -2.9836   -0.3847   -0.3131 C   0  0  0  0  0
    1.7930    1.5384   -2.5655 C   0  0  0  0  0
    2.8652   -0.5598   -1.7120 C   0  0  0  0  0
    3.4920    1.0226   -5.8564 C   0  0  0  0  0
    5.1515    1.7923   -4.1499 C   0  0  0  0  0
    2.3527    1.5386   -4.9776 C   0  0  0  0  0
    4.0081    2.3110   -3.2793 C   0  0  0  0  0
    4.7812    1.8201   -5.6365 C   0  0  0  0  0
    5.9178    1.2639   -6.4905 C   0  0  0  0  0
   -2.7952   -6.6612   -0.2380 C   0  0  0  0  0
   -3.2731   -5.3098    0.2486 C   0  0  0  0  0
    0.8657    2.5219   -2.5439 N   0  0  0  0  0
    2.7660    1.5826   -3.5711 N   0  0  0  0  0
   -1.1092    1.4395    0.4037 N   0  0  0  0  0
    2.6293   -1.6170   -2.4077 O   0  0  0  0  0
    3.9639   -0.3882   -1.0634 O   0  0  0  0  0
   -3.6007    1.7326    1.0513 O   0  0  0  0  0
   -2.9446    2.0058   -1.3558 O   0  0  0  0  0
   -3.5010   -4.4642   -0.8777 O   0  0  0  0  0
   -2.7640    1.3549   -0.0724 S   0  0  0  0  0
  1  9  1  0  0  0
  2  4  1  0  0  0
  3 10  1  0  0  0
  5  8  1  0  0  0
  6 21  1  0  0  0
  7 11  1  0  0  0
  7 12  1  0  0  0
  8 23  1  0  0  0
  9 28  1  0  0  0
 11 22  1  0  0  0
 12 24  1  0  0  0
 13 15  1  0  0  0
 13 17  1  0  0  0
 14 16  1  0  0  0
 14 17  1  0  0  0
 15 22  1  0  0  0
 16 22  1  0  0  0
 17 18  1  0  0  0
 19 20  1  0  0  0
 20 28  1  0  0  0
 29 10  1  0  0  0
 29 23  1  0  0  0
  1  3  2  0  0  0
  2  9  2  0  0  0
  4 10  2  0  0  0
  5  7  2  0  0  0
  6  8  2  0  0  0
 11 21  2  0  0  0
 12 25  2  0  0  0
 29 26  2  0  0  0
 29 27  2  0  0  0
M  CHG  1  24  -1
M  END
> <rmsd>
0.509850621

$$$$
ZINC64843261


 29 31  0  0  0  0  0  0  0  0999 V2000
   -3.2800   -2.5844    0.4531 C   0  0  0  0  0
   -2.4349   -2.2562   -1.7864 C   0  0  0  0  0
   -3.2320   -1.2078    0.6730 C   0  0  0  0  0
   -2.3869   -0.8796   -1.5666 C   0  0  0  0  0
    1.0047    0.7848   -0.3098 C   0  0  0  0  0
    0.0114    2.7189   -1.2736 C   0  0  0  0  0
    2.0570    0.9142   -1.2094 C   0  0  0  0  0
   -0.0414    1.7003   -0.3359 C   0  0  0  0  0
   -2.8814   -3.1086   -0.7766 C   0  0  0  0  0
   -2.7854   -0.3554   -0.3368 C   0  0  0  0  0
    2.0158    1.9679   -2.1081 C   0  0  0  0  0
    3.1641   -0.0570   -1.1797 C   0  0  0  0  0
    4.0491    1.6428   -5.2294 C   0  0  0  0  0
    5.4773    2.5066   -3.3660 C   0  0  0  0  0
    2.7962    2.0543   -4.4565 C   0  0  0  0  0
    4.2209    2.9206   -2.6016 C   0  0  0  0  0
    5.2461    2.5327   -4.8804 C   0  0  0  0  0
    6.4973    2.0805   -5.6294 C   0  0  0  0  0
   -2.1163   -6.5994   -0.3112 C   0  0  0  0  0
   -2.7414   -5.2974    0.1426 C   0  0  0  0  0
    1.0168    2.8770   -2.1636 N   0  0  0  0  0
    3.0720    2.1045   -3.0170 N   0  0  0  0  0
   -1.1338    1.5939    0.5730 N   0  0  0  0  0
    3.0771   -1.1165   -1.9058 O   0  0  0  0  0
    4.1808    0.1865   -0.4286 O   0  0  0  0  0
   -3.6901    1.6836    0.9859 O   0  0  0  0  0
   -2.8358    2.0494   -1.3456 O   0  0  0  0  0
   -2.9285   -4.4517   -0.9911 O   0  0  0  0  0
   -2.7255    1.3913   -0.0579 S   0  0  0  0  0
  1  9  1  0  0  0
  2  4  1  0  0  0
  3 10  1  0  0  0
  5  8  1  0  0  0
  6 21  1  0  0  0
  7 11  1  0  0  0
  7 12  1  0  0  0
  8 23  1  0  0  0
  9 28  1  0  0  0
 11 22  1  0  0  0
 12 24  1  0  0  0
 13 15  1  0  0  0
 13 17  1  0  0  0
 14 16  1  0  0  0
 14 17  1  0  0  0
 15 22  1  0  0  0
 16 22  1  0  0  0
 17 18  1  0  0  0
 19 20  1  0  0  0
 20 28  1  0  0  0
 29 10  1  0  0  0
 29 23  1  0  0  0
  1  3  2  0  0  0
  2  9  2  0  0  0
  4 10  2  0  0  0
  5  7  2  0  0  0
  6  8  2  0  0  0
 11 21  2  0  0  0
 12 25  2  0  0  0
 29 26  2  0  0  0
 29 27  2  0  0  0
M  CHG  1  24  -1
M  END
> <rmsd>
0.688882947

$$$$
ZINC35397513


 29 30  0  0  0  0  0  0  0  0999 V2000
   -3.2793   -2.5850    0.4516 C   0  0  0  0  0
   -2.4334   -2.2551   -1.7872 C   0  0  0  0  0
   -3.2323   -1.2085    0.6722 C   0  0  0  0  0
   -2.3865   -0.8786   -1.5668 C   0  0  0  0  0
    1.0043    0.7846   -0.3100 C   0  0  0  0  0
    0.0112    2.7190   -1.2736 C   0  0  0  0  0
    2.0566    0.9140   -1.2097 C   0  0  0  0  0
   -2.8797   -3.1083   -0.7781 C   0  0  0  0  0
   -0.0418    1.7001   -0.3360 C   0  0  0  0  0
   -2.7859   -0.3552   -0.3370 C   0  0  0  0  0
    2.0155    1.9678   -2.1082 C   0  0  0  0  0
    3.1635   -0.0572   -1.1801 C   0  0  0  0  0
   -2.9278   -4.5801   -1.0135 C   0  0  0  0  0
    5.9334    2.1216   -2.1237 C   0  0  0  0  0
    5.7406    4.6139   -1.8480 C   0  0  0  0  0
    1.8811    2.0291   -5.7526 C   0  0  0  0  0
    2.5728   -0.3862   -5.8644 C   0  0  0  0  0
    3.8805    3.3340   -3.0112 C   0  0  0  0  0
    3.4064    1.0692   -3.9571 C   0  0  0  0  0
    4.9711    3.2950   -1.9339 C   0  0  0  0  0
    2.2620    0.7912   -4.9394 C   0  0  0  0  0
    1.0164    2.8769   -2.1636 N   0  0  0  0  0
   -1.1342    1.5938    0.5730 N   0  0  0  0  0
    3.0589    2.1028   -3.0062 N   0  0  0  0  0
    3.0766   -1.1167   -1.9062 O   0  0  0  0  0
    4.1804    0.1862   -0.4290 O   0  0  0  0  0
   -3.6904    1.6837    0.9860 O   0  0  0  0  0
   -2.8362    2.0496   -1.3455 O   0  0  0  0  0
   -2.7258    1.3915   -0.0579 S   0  0  0  0  0
  1  8  1  0  0  0
  2  4  1  0  0  0
  3 10  1  0  0  0
  5  9  1  0  0  0
  6 22  1  0  0  0
  7 11  1  0  0  0
  7 12  1  0  0  0
  9 23  1  0  0  0
 11 24  1  0  0  0
 12 25  1  0  0  0
 13  8  1  0  0  0
 14 20  1  0  0  0
 15 20  1  0  0  0
 16 21  1  0  0  0
 17 21  1  0  0  0
 18 20  1  0  0  0
 18 24  1  0  0  0
 19 21  1  0  0  0
 19 24  1  0  0  0
 29 10  1  0  0  0
 29 23  1  0  0  0
  1  3  2  0  0  0
  2  8  2  0  0  0
  4 10  2  0  0  0
  5  7  2  0  0  0
  6  9  2  0  0  0
 11 22  2  0  0  0
 12 26  2  0  0  0
 29 27  2  0  0  0
 29 28  2  0  0  0
M  CHG  1  25  -1
M  END
> <rmsd>
0.68950671

$$$$
ZINC35397513


 29 30  0  0  0  0  0  0  0  0999 V2000
   -3.5700   -2.5605    0.5578 C   0  0  0  0  0
   -2.9160   -2.3215   -1.7557 C   0  0  0  0  0
   -3.3973   -1.1896    0.7483 C   0  0  0  0  0
   -2.7433   -0.9505   -1.5653 C   0  0  0  0  0
    0.8680    0.4569   -0.6596 C   0  0  0  0  0
   -0.0605    2.4523   -1.5612 C   0  0  0  0  0
    1.8377    0.4943   -1.6555 C   0  0  0  0  0
   -3.3293   -3.1265   -0.6942 C   0  0  0  0  0
   -0.1027    1.4508   -0.6046 C   0  0  0  0  0
   -2.9840   -0.3845   -0.3133 C   0  0  0  0  0
    1.7930    1.5385   -2.5651 C   0  0  0  0  0
    2.8649   -0.5598   -1.7116 C   0  0  0  0  0
   -3.5119   -4.5925   -0.8977 C   0  0  0  0  0
    5.6922    1.3865   -2.9480 C   0  0  0  0  0
    5.7176    3.8890   -2.7003 C   0  0  0  0  0
    1.3210    1.5710   -6.1817 C   0  0  0  0  0
    1.8122   -0.8918   -6.3140 C   0  0  0  0  0
    3.6637    2.7456   -3.6622 C   0  0  0  0  0
    2.9307    0.5145   -4.5190 C   0  0  0  0  0
    4.8447    2.6333   -2.6905 C   0  0  0  0  0
    1.6810    0.3161   -5.3853 C   0  0  0  0  0
    0.8656    2.5220   -2.5435 N   0  0  0  0  0
   -1.1095    1.4396    0.4039 N   0  0  0  0  0
    2.7544    1.5822   -3.5586 N   0  0  0  0  0
    2.6292   -1.6170   -2.4074 O   0  0  0  0  0
    3.9636   -0.3883   -1.0629 O   0  0  0  0  0
   -3.6011    1.7327    1.0514 O   0  0  0  0  0
   -2.9448    2.0060   -1.3557 O   0  0  0  0  0
   -2.7643    1.3551   -0.0723 S   0  0  0  0  0
  1  8  1  0  0  0
  2  4  1  0  0  0
  3 10  1  0  0  0
  5  9  1  0  0  0
  6 22  1  0  0  0
  7 11  1  0  0  0
  7 12  1  0  0  0
  9 23  1  0  0  0
 11 24  1  0  0  0
 12 25  1  0  0  0
 13  8  1  0  0  0
 14 20  1  0  0  0
 15 20  1  0  0  0
 16 21  1  0  0  0
 17 21  1  0  0  0
 18 20  1  0  0  0
 18 24  1  0  0  0
 19 21  1  0  0  0
 19 24  1  0  0  0
 29 10  1  0  0  0
 29 23  1  0  0  0
  1  3  2  0  0  0
  2  8  2  0  0  0
  4 10  2  0  0  0
  5  7  2  0  0  0
  6  9  2  0  0  0
 11 22  2  0  0  0
 12 26  2  0  0  0
 29 27  2  0  0  0
 29 28  2  0  0  0
M  CHG  1  25  -1
M  END
> <rmsd>
0.510537744

$$$$
ZINC35397527


 29 30  0  0  0  0  0  0  0  0999 V2000
   -3.5701   -2.5598    0.5595 C   0  0  0  0  0
   -3.3298   -3.1267   -0.6921 C   0  0  0  0  0
   -3.3970   -1.1887    0.7490 C   0  0  0  0  0
    0.8685    0.4569   -0.6595 C   0  0  0  0  0
   -2.7434   -0.9514   -1.5647 C   0  0  0  0  0
   -0.0601    2.4523   -1.5610 C   0  0  0  0  0
    1.8381    0.4943   -1.6554 C   0  0  0  0  0
   -2.9165   -2.3225   -1.7542 C   0  0  0  0  0
   -0.1022    1.4508   -0.6044 C   0  0  0  0  0
   -2.9835   -0.3845   -0.3131 C   0  0  0  0  0
    1.7934    1.5385   -2.5650 C   0  0  0  0  0
    2.8653   -0.5598   -1.7116 C   0  0  0  0  0
   -2.6583   -2.9297   -3.0919 C   0  0  0  0  0
    5.6926    1.3865   -2.9479 C   0  0  0  0  0
    5.7180    3.8890   -2.7002 C   0  0  0  0  0
    1.3213    1.5711   -6.1816 C   0  0  0  0  0
    1.8125   -0.8918   -6.3139 C   0  0  0  0  0
    3.6641    2.7455   -3.6621 C   0  0  0  0  0
    2.9310    0.5145   -4.5189 C   0  0  0  0  0
    4.8451    2.6333   -2.6904 C   0  0  0  0  0
    1.6813    0.3161   -5.3852 C   0  0  0  0  0
    0.8660    2.5220   -2.5434 N   0  0  0  0  0
   -1.1091    1.4396    0.4041 N   0  0  0  0  0
    2.7548    1.5822   -3.5585 N   0  0  0  0  0
    2.6295   -1.6170   -2.4073 O   0  0  0  0  0
    3.9640   -0.3883   -1.0629 O   0  0  0  0  0
   -3.6006    1.7327    1.0516 O   0  0  0  0  0
   -2.9444    2.0060   -1.3555 O   0  0  0  0  0
   -2.7639    1.3551   -0.0721 S   0  0  0  0  0
  1  3  1  0  0  0
  2  8  1  0  0  0
  4  9  1  0  0  0
  5 10  1  0  0  0
  6 22  1  0  0  0
  7 11  1  0  0  0
  7 12  1  0  0  0
  9 23  1  0  0  0
 11 24  1  0  0  0
 12 25  1  0  0  0
 13  8  1  0  0  0
 14 20  1  0  0  0
 15 20  1  0  0  0
 16 21  1  0  0  0
 17 21  1  0  0  0
 18 20  1  0  0  0
 18 24  1  0  0  0
 19 21  1  0  0  0
 19 24  1  0  0  0
 29 10  1  0  0  0
 29 23  1  0  0  0
  1  2  2  0  0  0
  3 10  2  0  0  0
  4  7  2  0  0  0
  5  8  2  0  0  0
  6  9  2  0  0  0
 11 22  2  0  0  0
 12 26  2  0  0  0
 29 27  2  0  0  0
 29 28  2  0  0  0
M  CHG  1  25  -1
M  END
> <rmsd>
0.510214031

$$$$
ZINC35397527


 29 30  0  0  0  0  0  0  0  0999 V2000
   -3.2795   -2.5843    0.4534 C   0  0  0  0  0
   -2.8804   -3.1086   -0.7760 C   0  0  0  0  0
   -3.2321   -1.2076    0.6730 C   0  0  0  0  0
    1.0047    0.7847   -0.3099 C   0  0  0  0  0
   -2.3865   -0.8795   -1.5662 C   0  0  0  0  0
    0.0116    2.7190   -1.2734 C   0  0  0  0  0
    2.0570    0.9140   -1.2095 C   0  0  0  0  0
   -2.4339   -2.2562   -1.7858 C   0  0  0  0  0
   -0.0413    1.7002   -0.3358 C   0  0  0  0  0
   -2.7855   -0.3552   -0.3368 C   0  0  0  0  0
    2.0159    1.9678   -2.1081 C   0  0  0  0  0
    3.1639   -0.0572   -1.1800 C   0  0  0  0  0
   -2.0058   -2.8178   -3.0996 C   0  0  0  0  0
    5.9338    2.1216   -2.1237 C   0  0  0  0  0
    5.7410    4.6139   -1.8479 C   0  0  0  0  0
    1.8814    2.0291   -5.7525 C   0  0  0  0  0
    2.5731   -0.3862   -5.8643 C   0  0  0  0  0
    3.8809    3.3340   -3.0112 C   0  0  0  0  0
    3.4067    1.0692   -3.9570 C   0  0  0  0  0
    4.9715    3.2950   -1.9338 C   0  0  0  0  0
    2.2623    0.7912   -4.9392 C   0  0  0  0  0
    1.0168    2.8769   -2.1634 N   0  0  0  0  0
   -1.1337    1.5938    0.5732 N   0  0  0  0  0
    3.0593    2.1028   -3.0061 N   0  0  0  0  0
    3.0770   -1.1167   -1.9061 O   0  0  0  0  0
    4.1808    0.1862   -0.4289 O   0  0  0  0  0
   -3.6900    1.6838    0.9863 O   0  0  0  0  0
   -2.8358    2.0497   -1.3453 O   0  0  0  0  0
   -2.7254    1.3915   -0.0576 S   0  0  0  0  0
  1  3  1  0  0  0
  2  8  1  0  0  0
  4  9  1  0  0  0
  5 10  1  0  0  0
  6 22  1  0  0  0
  7 11  1  0  0  0
  7 12  1  0  0  0
  9 23  1  0  0  0
 11 24  1  0  0  0
 12 25  1  0  0  0
 13  8  1  0  0  0
 14 20  1  0  0  0
 15 20  1  0  0  0
 16 21  1  0  0  0
 17 21  1  0  0  0
 18 20  1  0  0  0
 18 24  1  0  0  0
 19 21  1  0  0  0
 19 24  1  0  0  0
 29 10  1  0  0  0
 29 23  1  0  0  0
  1  2  2  0  0  0
  3 10  2  0  0  0
  4  7  2  0  0  0
  5  8  2  0  0  0
  6  9  2  0  0  0
 11 22  2  0  0  0
 12 26  2  0  0  0
 29 27  2  0  0  0
 29 28  2  0  0  0
M  CHG  1  25  -1
M  END
> <rmsd>
0.689210594

$$$$
ZINC35397384


 29 30  0  0  0  0  0  0  0  0999 V2000
   -3.2788   -2.5851    0.4527 C   0  0  0  0  0
   -2.4329   -2.2555   -1.7864 C   0  0  0  0  0
   -3.2320   -1.2086    0.6729 C   0  0  0  0  0
   -2.3862   -0.8789   -1.5660 C   0  0  0  0  0
    1.0044    0.7849   -0.3096 C   0  0  0  0  0
    0.0109    2.7190   -1.2736 C   0  0  0  0  0
    2.0566    0.9143   -1.2093 C   0  0  0  0  0
   -2.8792   -3.1085   -0.7770 C   0  0  0  0  0
   -0.0418    1.7004   -0.3358 C   0  0  0  0  0
   -2.7857   -0.3555   -0.3364 C   0  0  0  0  0
    2.0153    1.9680   -2.1081 C   0  0  0  0  0
    3.1638   -0.0568   -1.1797 C   0  0  0  0  0
    4.2524    4.8242   -2.5558 C   0  0  0  0  0
    1.8983    0.6358   -6.3687 C   0  0  0  0  0
   -1.5345   -5.1782   -1.2892 C   0  0  0  0  0
   -3.8953   -4.9645   -2.1471 C   0  0  0  0  0
    5.0196    3.6128   -3.0666 C   0  0  0  0  0
    2.1648    0.7195   -4.8725 C   0  0  0  0  0
    4.4300    2.2943   -2.5804 C   0  0  0  0  0
    2.8027    2.0410   -4.4609 C   0  0  0  0  0
   -2.9271   -4.5804   -1.0122 C   0  0  0  0  0
    1.0162    2.8770   -2.1635 N   0  0  0  0  0
   -1.1341    1.5940    0.5732 N   0  0  0  0  0
    3.0756    2.1051   -3.0207 N   0  0  0  0  0
    3.0769   -1.1164   -1.9056 O   0  0  0  0  0
    4.1805    0.1870   -0.4286 O   0  0  0  0  0
   -3.6904    1.6837    0.9864 O   0  0  0  0  0
   -2.8363    2.0493   -1.3452 O   0  0  0  0  0
   -2.7258    1.3913   -0.0576 S   0  0  0  0  0
  1  8  1  0  0  0
  2  4  1  0  0  0
  3 10  1  0  0  0
  5  9  1  0  0  0
  6 22  1  0  0  0
  7 11  1  0  0  0
  7 12  1  0  0  0
  9 23  1  0  0  0
 11 24  1  0  0  0
 12 25  1  0  0  0
 13 17  1  0  0  0
 14 18  1  0  0  0
 15 21  1  0  0  0
 16 21  1  0  0  0
 17 19  1  0  0  0
 18 20  1  0  0  0
 19 24  1  0  0  0
 20 24  1  0  0  0
 21  8  1  0  0  0
 29 10  1  0  0  0
 29 23  1  0  0  0
  1  3  2  0  0  0
  2  8  2  0  0  0
  4 10  2  0  0  0
  5  7  2  0  0  0
  6  9  2  0  0  0
 11 22  2  0  0  0
 12 26  2  0  0  0
 29 27  2  0  0  0
 29 28  2  0  0  0
M  CHG  1  25  -1
M  END
> <rmsd>
0.689512849

$$$$
ZINC35397384


 29 30  0  0  0  0  0  0  0  0999 V2000
   -3.5698   -2.5606    0.5590 C   0  0  0  0  0
   -2.9159   -2.3220   -1.7547 C   0  0  0  0  0
   -3.3972   -1.1896    0.7491 C   0  0  0  0  0
   -2.7433   -0.9510   -1.5645 C   0  0  0  0  0
    0.8681    0.4568   -0.6594 C   0  0  0  0  0
   -0.0607    2.4520   -1.5613 C   0  0  0  0  0
    1.8376    0.4941   -1.6553 C   0  0  0  0  0
   -3.3292   -3.1268   -0.6930 C   0  0  0  0  0
   -0.1027    1.4507   -0.6045 C   0  0  0  0  0
   -2.9839   -0.3849   -0.3126 C   0  0  0  0  0
    1.7927    1.5381   -2.5652 C   0  0  0  0  0
    2.8650   -0.5600   -1.7115 C   0  0  0  0  0
    4.1899    4.2061   -3.2705 C   0  0  0  0  0
    1.1730    0.1734   -6.7717 C   0  0  0  0  0
   -2.2013   -5.3003   -1.2908 C   0  0  0  0  0
   -4.6090   -4.9124   -1.9289 C   0  0  0  0  0
    4.8104    2.9332   -3.8287 C   0  0  0  0  0
    1.5849    0.2522   -5.3086 C   0  0  0  0  0
    4.1700    1.6700   -3.2661 C   0  0  0  0  0
    2.3581    1.5242   -4.9820 C   0  0  0  0  0
   -3.5117   -4.5929   -0.8962 C   0  0  0  0  0
    0.8654    2.5216   -2.5437 N   0  0  0  0  0
   -1.1095    1.4395    0.4040 N   0  0  0  0  0
    2.7696    1.5823   -3.5748 N   0  0  0  0  0
    2.6291   -1.6174   -2.4069 O   0  0  0  0  0
    3.9636   -0.3882   -1.0628 O   0  0  0  0  0
   -3.6010    1.7327    1.0517 O   0  0  0  0  0
   -2.9449    2.0056   -1.3555 O   0  0  0  0  0
   -2.7643    1.3549   -0.0721 S   0  0  0  0  0
  1  8  1  0  0  0
  2  4  1  0  0  0
  3 10  1  0  0  0
  5  9  1  0  0  0
  6 22  1  0  0  0
  7 11  1  0  0  0
  7 12  1  0  0  0
  9 23  1  0  0  0
 11 24  1  0  0  0
 12 25  1  0  0  0
 13 17  1  0  0  0
 14 18  1  0  0  0
 15 21  1  0  0  0
 16 21  1  0  0  0
 17 19  1  0  0  0
 18 20  1  0  0  0
 19 24  1  0  0  0
 20 24  1  0  0  0
 21  8  1  0  0  0
 29 10  1  0  0  0
 29 23  1  0  0  0
  1  3  2  0  0  0
  2  8  2  0  0  0
  4 10  2  0  0  0
  5  7  2  0  0  0
  6  9  2  0  0  0
 11 22  2  0  0  0
 12 26  2  0  0  0
 29 27  2  0  0  0
 29 28  2  0  0  0
M  CHG  1  25  -1
M  END
> <rmsd>
0.510262251

$$$$
ZINC35397373


 29 30  0  0  0  0  0  0  0  0999 V2000
    1.0036    0.7850   -0.3095 C   0  0  0  0  0
   -2.6572   -2.6142    0.5083 C   0  0  0  0  0
   -3.0542   -2.2252   -1.8429 C   0  0  0  0  0
    0.0106    2.7196   -1.2728 C   0  0  0  0  0
    2.0560    0.9146   -1.2089 C   0  0  0  0  0
   -2.8787   -3.1081   -0.7772 C   0  0  0  0  0
   -2.6113   -1.2376    0.7284 C   0  0  0  0  0
   -3.0081   -0.8485   -1.6229 C   0  0  0  0  0
   -0.0424    1.7007   -0.3354 C   0  0  0  0  0
   -2.7867   -0.3548   -0.3372 C   0  0  0  0  0
    2.0150    1.9686   -2.1073 C   0  0  0  0  0
    3.1630   -0.0567   -1.1795 C   0  0  0  0  0
   -2.9268   -4.5801   -1.0127 C   0  0  0  0  0
   -2.3708   -0.7459    2.1189 C   0  0  0  0  0
   -3.2000    0.0668   -2.7884 C   0  0  0  0  0
    4.2526    4.8246   -2.5535 C   0  0  0  0  0
    1.8984    0.6380   -6.3684 C   0  0  0  0  0
    5.0197    3.6133   -3.0647 C   0  0  0  0  0
    2.1647    0.7212   -4.8721 C   0  0  0  0  0
    4.4298    2.2947   -2.5791 C   0  0  0  0  0
    2.8028    2.0424   -4.4599 C   0  0  0  0  0
    1.0160    2.8778   -2.1625 N   0  0  0  0  0
   -1.1349    1.5941    0.5734 N   0  0  0  0  0
    3.0755    2.1059   -3.0196 N   0  0  0  0  0
    3.0760   -1.1160   -1.9058 O   0  0  0  0  0
    4.1797    0.1866   -0.4281 O   0  0  0  0  0
   -3.6912    1.6841    0.9861 O   0  0  0  0  0
   -2.8367    2.0504   -1.3452 O   0  0  0  0  0
   -2.7265    1.3919   -0.0578 S   0  0  0  0  0
  1  9  1  0  0  0
  2  6  1  0  0  0
  3  8  1  0  0  0
  4 22  1  0  0  0
  5 11  1  0  0  0
  5 12  1  0  0  0
  7 10  1  0  0  0
  9 23  1  0  0  0
 11 24  1  0  0  0
 12 25  1  0  0  0
 13  6  1  0  0  0
 14  7  1  0  0  0
 15  8  1  0  0  0
 16 18  1  0  0  0
 17 19  1  0  0  0
 18 20  1  0  0  0
 19 21  1  0  0  0
 20 24  1  0  0  0
 21 24  1  0  0  0
 29 10  1  0  0  0
 29 23  1  0  0  0
  1  5  2  0  0  0
  2  7  2  0  0  0
  3  6  2  0  0  0
  4  9  2  0  0  0
  8 10  2  0  0  0
 11 22  2  0  0  0
 12 26  2  0  0  0
 29 27  2  0  0  0
 29 28  2  0  0  0
M  CHG  1  25  -1
M  END
> <rmsd>
0.689662516

$$$$
ZINC35397373


 29 30  0  0  0  0  0  0  0  0999 V2000
    0.8673    0.4571   -0.6593 C   0  0  0  0  0
   -2.9497   -2.6375    0.5569 C   0  0  0  0  0
   -3.5356   -2.2439   -1.7537 C   0  0  0  0  0
   -0.0610    2.4528   -1.5606 C   0  0  0  0  0
    1.8370    0.4946   -1.6551 C   0  0  0  0  0
   -3.3286   -3.1263   -0.6933 C   0  0  0  0  0
   -2.7779   -1.2664    0.7469 C   0  0  0  0  0
   -3.3637   -0.8727   -1.5637 C   0  0  0  0  0
   -0.1033    1.4512   -0.6042 C   0  0  0  0  0
   -2.9849   -0.3840   -0.3134 C   0  0  0  0  0
    1.7924    1.5390   -2.5646 C   0  0  0  0  0
    2.8642   -0.5596   -1.7115 C   0  0  0  0  0
   -3.5113   -4.5926   -0.8968 C   0  0  0  0  0
   -2.3705   -0.7801    2.1000 C   0  0  0  0  0
   -3.5939    0.0422   -2.7226 C   0  0  0  0  0
    4.1901    4.2069   -3.2686 C   0  0  0  0  0
    1.1730    0.1760   -6.7717 C   0  0  0  0  0
    4.8105    2.9341   -3.8271 C   0  0  0  0  0
    1.5847    0.2541   -5.3085 C   0  0  0  0  0
    4.1698    1.6708   -3.2651 C   0  0  0  0  0
    2.3581    1.5259   -4.9813 C   0  0  0  0  0
    0.8652    2.5226   -2.5428 N   0  0  0  0  0
   -1.1102    1.4398    0.4042 N   0  0  0  0  0
    2.7695    1.5833   -3.5741 N   0  0  0  0  0
    2.6282   -1.6167   -2.4073 O   0  0  0  0  0
    3.9628   -0.3883   -1.0626 O   0  0  0  0  0
   -3.6018    1.7332    1.0516 O   0  0  0  0  0
   -2.9454    2.0068   -1.3554 O   0  0  0  0  0
   -2.7651    1.3556   -0.0722 S   0  0  0  0  0
  1  9  1  0  0  0
  2  6  1  0  0  0
  3  8  1  0  0  0
  4 22  1  0  0  0
  5 11  1  0  0  0
  5 12  1  0  0  0
  7 10  1  0  0  0
  9 23  1  0  0  0
 11 24  1  0  0  0
 12 25  1  0  0  0
 13  6  1  0  0  0
 14  7  1  0  0  0
 15  8  1  0  0  0
 16 18  1  0  0  0
 17 19  1  0  0  0
 18 20  1  0  0  0
 19 21  1  0  0  0
 20 24  1  0  0  0
 21 24  1  0  0  0
 29 10  1  0  0  0
 29 23  1  0  0  0
  1  5  2  0  0  0
  2  7  2  0  0  0
  3  6  2  0  0  0
  4  9  2  0  0  0
  8 10  2  0  0  0
 11 22  2  0  0  0
 12 26  2  0  0  0
 29 27  2  0  0  0
 29 28  2  0  0  0
M  CHG  1  25  -1
M  END
> <rmsd>
0.510552347

$$$$
ZINC14025727


 31 33  0  0  0  0  0  0  0  0999 V2000
   -2.2234    4.9663   -1.0708 C   0  0  0  0  0
   -0.8339    4.8952   -0.9725 C   0  0  0  0  0
    4.1579   -4.1473    0.7903 C   0  0  0  0  0
    3.2346   -3.8505    1.7926 C   0  0  0  0  0
   -3.0064    3.8777   -0.6867 C   0  0  0  0  0
   -5.4079   -2.1837    0.6471 C   0  0  0  0  0
   -0.2272    3.7355   -0.4902 C   0  0  0  0  0
   -4.7393   -0.9656    0.5255 C   0  0  0  0  0
    4.5896   -3.1457   -0.0793 C   0  0  0  0  0
    2.7427   -2.5521    1.9254 C   0  0  0  0  0
   -3.3324   -1.9099   -1.1967 C   0  0  0  0  0
   -2.3998    2.7179   -0.2044 C   0  0  0  0  0
   -5.0387   -3.2650   -0.1531 C   0  0  0  0  0
   -4.0009   -3.1280   -1.0750 C   0  0  0  0  0
   -3.7015   -0.8287   -0.3964 C   0  0  0  0  0
   -1.0102    2.6468   -0.1062 C   0  0  0  0  0
    4.0977   -1.8473    0.0535 C   0  0  0  0  0
    3.1742   -1.5503    1.0558 C   0  0  0  0  0
   -3.2469    1.5986    0.1885 C   0  0  0  0  0
    0.9908    1.2625    0.5305 C   0  0  0  0  0
   -5.7689   -4.5592   -0.0046 C   0  0  0  0  0
   -3.5880   -4.2717   -1.9421 C   0  0  0  0  0
    1.2760   -0.1180    1.0807 C   0  0  0  0  0
   -3.0224    0.4096   -0.5199 N   0  0  0  0  0
   -0.3805    1.4945    0.3725 N   0  0  0  0  0
    4.5490   -0.8385   -0.8414 N   0  0  0  0  0
    3.9189   -0.6491   -1.9087 O   0  0  0  0  0
   -4.1170    1.7191    1.0596 O   0  0  0  0  0
    1.9110    2.0319    0.2709 O   0  0  0  0  0
    5.5634   -0.1677   -0.5366 O   0  0  0  0  0
    2.6738   -0.2790    1.2060 O   0  0  0  0  0
  1  2  1  0  0  0
  3  4  1  0  0  0
  5 12  1  0  0  0
  6 13  1  0  0  0
  7 16  1  0  0  0
  8 15  1  0  0  0
  9 17  1  0  0  0
 10 18  1  0  0  0
 11 14  1  0  0  0
 12 19  1  0  0  0
 15 24  1  0  0  0
 16 25  1  0  0  0
 17 26  1  0  0  0
 18 31  1  0  0  0
 19 24  1  0  0  0
 20 25  1  0  0  0
 21 13  1  0  0  0
 22 14  1  0  0  0
 23 20  1  0  0  0
 23 31  1  0  0  0
 26 27  1  0  0  0
  1  5  2  0  0  0
  2  7  2  0  0  0
  3  9  2  0  0  0
  4 10  2  0  0  0
  6  8  2  0  0  0
 11 15  2  0  0  0
 12 16  2  0  0  0
 13 14  2  0  0  0
 17 18  2  0  0  0
 19 28  2  0  0  0
 20 29  2  0  0  0
 26 30  2  0  0  0
M  CHG  2  26   1  27  -1
M  END
> <rmsd>
0.575711131

$$$$
ZINC14025727


 31 33  0  0  0  0  0  0  0  0999 V2000
   -2.2232    4.9664   -1.0712 C   0  0  0  0  0
   -0.8337    4.8953   -0.9729 C   0  0  0  0  0
    4.1580   -4.1473    0.7901 C   0  0  0  0  0
    3.2347   -3.8503    1.7924 C   0  0  0  0  0
   -3.0063    3.8778   -0.6871 C   0  0  0  0  0
   -3.9992   -3.1279   -1.0755 C   0  0  0  0  0
   -0.2270    3.7356   -0.4906 C   0  0  0  0  0
   -3.3315   -1.9094   -1.1971 C   0  0  0  0  0
    4.5897   -3.1456   -0.0796 C   0  0  0  0  0
    2.7428   -2.5519    1.9252 C   0  0  0  0  0
   -4.7391   -0.9663    0.5253 C   0  0  0  0  0
   -2.3996    2.7180   -0.2048 C   0  0  0  0  0
   -5.0369   -3.2657   -0.1536 C   0  0  0  0  0
   -5.4068   -2.1849    0.6468 C   0  0  0  0  0
   -3.7014   -0.8286   -0.3967 C   0  0  0  0  0
   -1.0100    2.6469   -0.1065 C   0  0  0  0  0
    4.0978   -1.8472    0.0533 C   0  0  0  0  0
    3.1744   -1.5502    1.0556 C   0  0  0  0  0
   -3.2467    1.5988    0.1882 C   0  0  0  0  0
    0.9909    1.2626    0.5301 C   0  0  0  0  0
   -5.7373   -4.5800   -0.0418 C   0  0  0  0  0
   -6.5150   -2.3087    1.6404 C   0  0  0  0  0
    1.2762   -0.1178    1.0804 C   0  0  0  0  0
   -3.0222    0.4098   -0.5202 N   0  0  0  0  0
   -0.3803    1.4946    0.3722 N   0  0  0  0  0
    4.5491   -0.8384   -0.8417 N   0  0  0  0  0
    3.9190   -0.6491   -1.9090 O   0  0  0  0  0
   -4.1168    1.7193    1.0594 O   0  0  0  0  0
    1.9112    2.0320    0.2706 O   0  0  0  0  0
    5.5636   -0.1676   -0.5370 O   0  0  0  0  0
    2.6740   -0.2789    1.2057 O   0  0  0  0  0
  1  2  1  0  0  0
  3  4  1  0  0  0
  5 12  1  0  0  0
  6 13  1  0  0  0
  7 16  1  0  0  0
  8 15  1  0  0  0
  9 17  1  0  0  0
 10 18  1  0  0  0
 11 14  1  0  0  0
 12 19  1  0  0  0
 15 24  1  0  0  0
 16 25  1  0  0  0
 17 26  1  0  0  0
 18 31  1  0  0  0
 19 24  1  0  0  0
 20 25  1  0  0  0
 21 13  1  0  0  0
 22 14  1  0  0  0
 23 20  1  0  0  0
 23 31  1  0  0  0
 26 27  1  0  0  0
  1  5  2  0  0  0
  2  7  2  0  0  0
  3  9  2  0  0  0
  4 10  2  0  0  0
  6  8  2  0  0  0
 11 15  2  0  0  0
 12 16  2  0  0  0
 13 14  2  0  0  0
 17 18  2  0  0  0
 19 28  2  0  0  0
 20 29  2  0  0  0
 26 30  2  0  0  0
M  CHG  2  26   1  27  -1
M  END
> <rmsd>
0.575525463

$$$$
ZINC07361394


 29 31  0  0  0  0  0  0  0  0999 V2000
    0.7119    2.4554   -2.7191 C   0  0  0  0  0
   -0.1854    2.4608   -1.6511 C   0  0  0  0  0
    1.5533    1.3607   -2.9176 C   0  0  0  0  0
   -3.2300   -2.2922   -1.7467 C   0  0  0  0  0
   -3.0025   -0.9290   -1.5586 C   0  0  0  0  0
   -3.5073   -1.1693    0.7919 C   0  0  0  0  0
   -3.7347   -2.5326    0.6037 C   0  0  0  0  0
    0.6003    0.2768   -0.9801 C   0  0  0  0  0
   -0.2411    1.3714   -0.7817 C   0  0  0  0  0
    1.4975    0.2715   -2.0481 C   0  0  0  0  0
   -3.5961   -3.0941   -0.6657 C   0  0  0  0  0
   -3.1412   -0.3675   -0.2892 C   0  0  0  0  0
   -4.1174   -3.3538    1.7481 C   0  0  0  0  0
   -1.0012   -4.2885    3.5214 C   0  0  0  0  0
   -2.0035   -5.2940    4.0731 C   0  0  0  0  0
   -1.6481   -3.8501    2.2149 C   0  0  0  0  0
   -3.3416   -4.6700    3.7086 C   0  0  0  0  0
    0.5358   -0.8902   -0.0432 C   0  0  0  0  0
   -3.6486   -4.9095   -2.2008 C   0  0  0  0  0
   -3.0847   -3.9395    2.4748 N   0  0  0  0  0
   -1.1740    1.3985    0.3125 N   0  0  0  0  0
    2.3664   -0.8326   -2.2714 N   0  0  0  0  0
    3.4967   -0.8327   -1.7294 O   0  0  0  0  0
   -5.3050   -3.4849    2.0432 O   0  0  0  0  0
    1.9756   -1.7724   -3.0031 O   0  0  0  0  0
   -3.5938    1.7534    1.1332 O   0  0  0  0  0
   -3.1058    2.0312   -1.3131 O   0  0  0  0  0
   -3.8138   -4.4237   -0.8704 O   0  0  0  0  0
   -2.8564    1.3388   -0.0546 S   0  0  0  0  0
  1  2  1  0  0  0
  3 10  1  0  0  0
  4 11  1  0  0  0
  5 12  1  0  0  0
  6  7  1  0  0  0
  7 13  1  0  0  0
  8  9  1  0  0  0
  9 21  1  0  0  0
 10 22  1  0  0  0
 11 28  1  0  0  0
 13 20  1  0  0  0
 14 15  1  0  0  0
 14 16  1  0  0  0
 15 17  1  0  0  0
 16 20  1  0  0  0
 17 20  1  0  0  0
 18  8  1  0  0  0
 19 28  1  0  0  0
 22 23  1  0  0  0
 29 12  1  0  0  0
 29 21  1  0  0  0
  1  3  2  0  0  0
  2  9  2  0  0  0
  4  5  2  0  0  0
  6 12  2  0  0  0
  7 11  2  0  0  0
  8 10  2  0  0  0
 13 24  2  0  0  0
 22 25  2  0  0  0
 29 26  2  0  0  0
 29 27  2  0  0  0
M  CHG  2  22   1  23  -1
M  END
> <rmsd>
0.395904362

$$$$
ZINC07361394


 29 31  0  0  0  0  0  0  0  0999 V2000
    0.7131    2.4560   -2.7186 C   0  0  0  0  0
   -0.1843    2.4610   -1.6508 C   0  0  0  0  0
    1.5545    1.3614   -2.9174 C   0  0  0  0  0
   -3.7346   -2.5316    0.6042 C   0  0  0  0  0
   -3.5069   -1.1683    0.7914 C   0  0  0  0  0
   -3.0021   -0.9299   -1.5593 C   0  0  0  0  0
   -3.2298   -2.2933   -1.7465 C   0  0  0  0  0
    0.6010    0.2769   -0.9803 C   0  0  0  0  0
   -0.2403    1.3715   -0.7816 C   0  0  0  0  0
    1.4985    0.2718   -2.0482 C   0  0  0  0  0
   -3.5960   -3.0942   -0.6647 C   0  0  0  0  0
   -3.1406   -0.3674   -0.2903 C   0  0  0  0  0
   -3.0790   -2.8621   -3.0822 C   0  0  0  0  0
   -6.2493   -2.2528   -4.9007 C   0  0  0  0  0
   -5.5968   -3.3429   -5.7408 C   0  0  0  0  0
   -5.5546   -2.4036   -3.5545 C   0  0  0  0  0
   -4.1469   -3.2975   -5.2839 C   0  0  0  0  0
    0.5363   -0.8904   -0.0438 C   0  0  0  0  0
   -4.1930   -5.1677    0.3351 C   0  0  0  0  0
   -4.2115   -2.8749   -3.8914 N   0  0  0  0  0
   -1.1735    1.3984    0.3123 N   0  0  0  0  0
    2.3673   -0.8322   -2.2717 N   0  0  0  0  0
    3.4976   -0.8325   -1.7295 O   0  0  0  0  0
   -1.9835   -3.2826   -3.4531 O   0  0  0  0  0
    1.9767   -1.7718   -3.0037 O   0  0  0  0  0
   -3.5933    1.7530    1.1326 O   0  0  0  0  0
   -3.1049    2.0315   -1.3135 O   0  0  0  0  0
   -3.8230   -4.4281   -0.8267 O   0  0  0  0  0
   -2.8557    1.3388   -0.0551 S   0  0  0  0  0
  1  2  1  0  0  0
  3 10  1  0  0  0
  4 11  1  0  0  0
  5 12  1  0  0  0
  6  7  1  0  0  0
  7 13  1  0  0  0
  8  9  1  0  0  0
  9 21  1  0  0  0
 10 22  1  0  0  0
 11 28  1  0  0  0
 13 20  1  0  0  0
 14 15  1  0  0  0
 14 16  1  0  0  0
 15 17  1  0  0  0
 16 20  1  0  0  0
 17 20  1  0  0  0
 18  8  1  0  0  0
 19 28  1  0  0  0
 22 23  1  0  0  0
 29 12  1  0  0  0
 29 21  1  0  0  0
  1  3  2  0  0  0
  2  9  2  0  0  0
  4  5  2  0  0  0
  6 12  2  0  0  0
  7 11  2  0  0  0
  8 10  2  0  0  0
 13 24  2  0  0  0
 22 25  2  0  0  0
 29 26  2  0  0  0
 29 27  2  0  0  0
M  CHG  2  22   1  23  -1
M  END
> <rmsd>
0.395856351

$$$$
ZINC32962191


 29 31  0  0  0  0  0  0  0  0999 V2000
   -2.7219   -2.6317    0.4805 C   0  0  0  0  0
    1.0094    2.8740   -2.2075 C   0  0  0  0  0
   -0.0471    2.7604   -1.3040 C   0  0  0  0  0
   -2.8502   -3.1012   -0.8268 C   0  0  0  0  0
    0.9941    0.8091   -0.3317 C   0  0  0  0  0
   -2.9040   -0.8261   -1.6384 C   0  0  0  0  0
    2.0506    0.9226   -1.2353 C   0  0  0  0  0
   -2.6848   -1.2595    0.7283 C   0  0  0  0  0
    2.0583    1.9551   -2.1732 C   0  0  0  0  0
   -0.0549    1.7280   -0.3661 C   0  0  0  0  0
   -2.9412   -2.1984   -1.8862 C   0  0  0  0  0
   -2.7757   -0.3567   -0.3312 C   0  0  0  0  0
    3.1472   -0.0621   -1.1775 C   0  0  0  0  0
    2.7968    4.5098   -5.2330 C   0  0  0  0  0
    4.0731    4.8321   -4.4529 C   0  0  0  0  0
    2.8658    3.2356   -6.0774 C   0  0  0  0  0
    4.0702    4.3830   -2.9919 C   0  0  0  0  0
    2.2551    1.9941   -5.4273 C   0  0  0  0  0
    4.2989    2.8874   -2.7851 C   0  0  0  0  0
    3.1250    1.3448   -4.3533 C   0  0  0  0  0
   -2.5461   -0.7900    2.1395 C   0  0  0  0  0
    3.1083    2.0863   -3.0881 N   0  0  0  0  0
   -1.1366    1.6120    0.5584 N   0  0  0  0  0
    3.0518   -1.1333   -1.8834 O   0  0  0  0  0
    4.1593    0.1855   -0.4232 O   0  0  0  0  0
   -3.6862    1.6729    1.0020 O   0  0  0  0  0
   -2.8655    2.0467   -1.3402 O   0  0  0  0  0
   -3.0644   -2.6494   -3.1415 F   0  0  0  0  0
   -2.7316    1.3907   -0.0538 S   0  0  0  0  0
  1  8  1  0  0  0
  2  9  1  0  0  0
  3 10  1  0  0  0
  4 11  1  0  0  0
  5  7  1  0  0  0
  6 12  1  0  0  0
  7 13  1  0  0  0
  9 22  1  0  0  0
 10 23  1  0  0  0
 11 28  1  0  0  0
 13 24  1  0  0  0
 14 15  1  0  0  0
 14 16  1  0  0  0
 15 17  1  0  0  0
 16 18  1  0  0  0
 17 19  1  0  0  0
 18 20  1  0  0  0
 19 22  1  0  0  0
 20 22  1  0  0  0
 21  8  1  0  0  0
 29 12  1  0  0  0
 29 23  1  0  0  0
  1  4  2  0  0  0
  2  3  2  0  0  0
  5 10  2  0  0  0
  6 11  2  0  0  0
  7  9  2  0  0  0
  8 12  2  0  0  0
 13 25  2  0  0  0
 29 26  2  0  0  0
 29 27  2  0  0  0
M  CHG  1  24  -1
M  END
> <rmsd>
0.709845066

$$$$
ZINC32962191


 29 31  0  0  0  0  0  0  0  0999 V2000
   -3.0224   -2.6496    0.5406 C   0  0  0  0  0
    0.8578    2.5113   -2.5852 C   0  0  0  0  0
   -0.1153    2.4924   -1.5861 C   0  0  0  0  0
   -3.3084   -3.1229   -0.7400 C   0  0  0  0  0
    0.8574    0.4765   -0.6767 C   0  0  0  0  0
   -3.2608   -0.8606   -1.5867 C   0  0  0  0  0
    1.8306    0.4953   -1.6759 C   0  0  0  0  0
   -2.8558   -1.2818    0.7575 C   0  0  0  0  0
    1.8307    1.5127   -2.6302 C   0  0  0  0  0
   -0.1156    1.4750   -0.6318 C   0  0  0  0  0
   -3.4276   -2.2285   -1.8037 C   0  0  0  0  0
   -2.9749   -0.3873   -0.3062 C   0  0  0  0  0
    2.8479   -0.5723   -1.7006 C   0  0  0  0  0
    2.4763    3.9645   -5.7934 C   0  0  0  0  0
    3.8410    4.1941   -5.1407 C   0  0  0  0  0
    2.3669    2.6789   -6.6160 C   0  0  0  0  0
    3.9398    3.7639   -3.6773 C   0  0  0  0  0
    1.7250    1.4974   -5.8886 C   0  0  0  0  0
    4.0700    2.2575   -3.4638 C   0  0  0  0  0
    2.6384    0.7941   -4.8872 C   0  0  0  0  0
   -2.5497   -0.8080    2.1407 C   0  0  0  0  0
    2.7976    1.5496   -3.6403 N   0  0  0  0  0
   -1.1119    1.4560    0.3905 N   0  0  0  0  0
    2.6041   -1.6410   -2.3740 O   0  0  0  0  0
    3.9422   -0.3967   -1.0477 O   0  0  0  0  0
   -3.5965    1.7237    1.0661 O   0  0  0  0  0
   -2.9717    2.0035   -1.3485 O   0  0  0  0  0
   -3.7021   -2.6831   -3.0334 F   0  0  0  0  0
   -2.7695    1.3543   -0.0676 S   0  0  0  0  0
  1  8  1  0  0  0
  2  9  1  0  0  0
  3 10  1  0  0  0
  4 11  1  0  0  0
  5  7  1  0  0  0
  6 12  1  0  0  0
  7 13  1  0  0  0
  9 22  1  0  0  0
 10 23  1  0  0  0
 11 28  1  0  0  0
 13 24  1  0  0  0
 14 15  1  0  0  0
 14 16  1  0  0  0
 15 17  1  0  0  0
 16 18  1  0  0  0
 17 19  1  0  0  0
 18 20  1  0  0  0
 19 22  1  0  0  0
 20 22  1  0  0  0
 21  8  1  0  0  0
 29 12  1  0  0  0
 29 23  1  0  0  0
  1  4  2  0  0  0
  2  3  2  0  0  0
  5 10  2  0  0  0
  6 11  2  0  0  0
  7  9  2  0  0  0
  8 12  2  0  0  0
 13 25  2  0  0  0
 29 26  2  0  0  0
 29 27  2  0  0  0
M  CHG  1  24  -1
M  END
> <rmsd>
0.527989447

$$$$
ZINC64580552


 29 31  0  0  0  0  0  0  0  0999 V2000
    0.8693    2.5244   -2.5710 C   0  0  0  0  0
   -0.1065    2.5011   -1.5747 C   0  0  0  0  0
   -3.5404   -2.5656    0.5403 C   0  0  0  0  0
   -2.9079   -2.3077   -1.7771 C   0  0  0  0  0
   -3.3752   -1.1948    0.7381 C   0  0  0  0  0
   -2.7426   -0.9368   -1.5794 C   0  0  0  0  0
    0.8591    0.4769   -0.6764 C   0  0  0  0  0
    1.8350    0.5002   -1.6728 C   0  0  0  0  0
    1.8400    1.5240   -2.6202 C   0  0  0  0  0
   -0.1117    1.4774   -0.6273 C   0  0  0  0  0
   -3.3068   -3.1221   -0.7172 C   0  0  0  0  0
   -2.9763   -0.3804   -0.3218 C   0  0  0  0  0
    2.8498   -0.5698   -1.7020 C   0  0  0  0  0
    4.0532    2.2957   -3.3467 C   0  0  0  0  0
    2.3964    1.5193   -5.0341 C   0  0  0  0  0
    5.1863    1.7867   -4.2273 C   0  0  0  0  0
    3.5339    1.0164   -5.9138 C   0  0  0  0  0
   -2.7415   -6.6557   -0.2911 C   0  0  0  0  0
    5.8834    1.4896   -6.6036 C   0  0  0  0  0
   -3.2253   -5.3111    0.2087 C   0  0  0  0  0
    2.8103    1.5654   -3.6281 N   0  0  0  0  0
   -1.1107    1.4539    0.3923 N   0  0  0  0  0
    4.7621    1.8558   -5.6724 N   0  0  0  0  0
    2.6053   -1.6331   -2.3833 O   0  0  0  0  0
    3.9428   -0.4010   -1.0450 O   0  0  0  0  0
   -3.5965    1.7228    1.0631 O   0  0  0  0  0
   -2.9646    2.0175   -1.3480 O   0  0  0  0  0
   -3.4684   -4.4596   -0.9101 O   0  0  0  0  0
   -2.7674    1.3592   -0.0709 S   0  0  0  0  0
  1  9  1  0  0  0
  2 10  1  0  0  0
  3 11  1  0  0  0
  4  6  1  0  0  0
  5 12  1  0  0  0
  7  8  1  0  0  0
  8 13  1  0  0  0
  9 21  1  0  0  0
 10 22  1  0  0  0
 11 28  1  0  0  0
 13 24  1  0  0  0
 14 16  1  0  0  0
 14 21  1  0  0  0
 15 17  1  0  0  0
 15 21  1  0  0  0
 16 23  1  0  0  0
 17 23  1  0  0  0
 18 20  1  0  0  0
 19 23  1  0  0  0
 20 28  1  0  0  0
 29 12  1  0  0  0
 29 22  1  0  0  0
  1  2  2  0  0  0
  3  5  2  0  0  0
  4 11  2  0  0  0
  6 12  2  0  0  0
  7 10  2  0  0  0
  8  9  2  0  0  0
 13 25  2  0  0  0
 29 26  2  0  0  0
 29 27  2  0  0  0
M  CHG  2  23   1  24  -1
M  END
> <rmsd>
0.526051164

$$$$
ZINC64580552


 29 31  0  0  0  0  0  0  0  0999 V2000
    1.0216    2.8838   -2.1903 C   0  0  0  0  0
   -0.0378    2.7668   -1.2906 C   0  0  0  0  0
   -3.2453   -2.5880    0.4343 C   0  0  0  0  0
   -2.4223   -2.2390   -1.8102 C   0  0  0  0  0
   -3.2072   -1.2125    0.6622 C   0  0  0  0  0
   -2.3841   -0.8634   -1.5823 C   0  0  0  0  0
    0.9960    0.8066   -0.3283 C   0  0  0  0  0
    2.0554    0.9236   -1.2282 C   0  0  0  0  0
    2.0681    1.9622   -2.1592 C   0  0  0  0  0
   -0.0507    1.7282   -0.3595 C   0  0  0  0  0
   -2.8528   -3.1013   -0.8019 C   0  0  0  0  0
   -2.7767   -0.3502   -0.3461 C   0  0  0  0  0
    3.1494   -0.0643   -1.1739 C   0  0  0  0  0
    4.2718    2.9156   -2.6654 C   0  0  0  0  0
    2.8452    2.0453   -4.5100 C   0  0  0  0  0
    5.5183    2.5119   -3.4412 C   0  0  0  0  0
    4.0955    1.6480   -5.2843 C   0  0  0  0  0
   -2.0540   -6.5882   -0.3645 C   0  0  0  0  0
    6.4544    2.3137   -5.7444 C   0  0  0  0  0
   -2.6862   -5.2944    0.1027 C   0  0  0  0  0
    3.1217    2.0970   -3.0708 N   0  0  0  0  0
   -1.1353    1.6088    0.5612 N   0  0  0  0  0
    5.2262    2.5750   -4.9189 N   0  0  0  0  0
    3.0534   -1.1304   -1.8871 O   0  0  0  0  0
    4.1599    0.1760   -0.4150 O   0  0  0  0  0
   -3.6860    1.6728    0.9980 O   0  0  0  0  0
   -2.8578    2.0602   -1.3394 O   0  0  0  0  0
   -2.8903   -4.4435   -1.0243 O   0  0  0  0  0
   -2.7291    1.3954   -0.0570 S   0  0  0  0  0
  1  9  1  0  0  0
  2 10  1  0  0  0
  3 11  1  0  0  0
  4  6  1  0  0  0
  5 12  1  0  0  0
  7  8  1  0  0  0
  8 13  1  0  0  0
  9 21  1  0  0  0
 10 22  1  0  0  0
 11 28  1  0  0  0
 13 24  1  0  0  0
 14 16  1  0  0  0
 14 21  1  0  0  0
 15 17  1  0  0  0
 15 21  1  0  0  0
 16 23  1  0  0  0
 17 23  1  0  0  0
 18 20  1  0  0  0
 19 23  1  0  0  0
 20 28  1  0  0  0
 29 12  1  0  0  0
 29 22  1  0  0  0
  1  2  2  0  0  0
  3  5  2  0  0  0
  4 11  2  0  0  0
  6 12  2  0  0  0
  7 10  2  0  0  0
  8  9  2  0  0  0
 13 25  2  0  0  0
 29 26  2  0  0  0
 29 27  2  0  0  0
M  CHG  2  23   1  24  -1
M  END
> <rmsd>
0.706889987

$$$$
ZINC64580576


 29 31  0  0  0  0  0  0  0  0999 V2000
    1.0208    2.8834   -2.1905 C   0  0  0  0  0
   -0.0386    2.7664   -1.2908 C   0  0  0  0  0
   -2.4210   -2.2390   -1.8103 C   0  0  0  0  0
   -3.2441   -2.5888    0.4342 C   0  0  0  0  0
   -2.3844   -0.8634   -1.5823 C   0  0  0  0  0
   -3.2073   -1.2132    0.6620 C   0  0  0  0  0
    0.9952    0.8062   -0.3285 C   0  0  0  0  0
    2.0546    0.9231   -1.2284 C   0  0  0  0  0
    2.0674    1.9617   -2.1594 C   0  0  0  0  0
   -0.0514    1.7278   -0.3597 C   0  0  0  0  0
   -2.8510   -3.1017   -0.8020 C   0  0  0  0  0
   -2.7775   -0.3505   -0.3462 C   0  0  0  0  0
    3.1485   -0.0648   -1.1740 C   0  0  0  0  0
    4.2711    2.9151   -2.6656 C   0  0  0  0  0
    2.8444    2.0449   -4.5101 C   0  0  0  0  0
    5.5175    2.5113   -3.4414 C   0  0  0  0  0
    4.0947    1.6475   -5.2845 C   0  0  0  0  0
    6.1079    2.4544   -7.2108 C   0  0  0  0  0
   -2.4705   -4.9005   -2.3105 C   0  0  0  0  0
    6.4537    2.3131   -5.7446 C   0  0  0  0  0
    3.1209    2.0965   -3.0709 N   0  0  0  0  0
   -1.1360    1.6084    0.5610 N   0  0  0  0  0
    5.2255    2.5745   -4.9191 N   0  0  0  0  0
    3.0526   -1.1309   -1.8873 O   0  0  0  0  0
    4.1591    0.1755   -0.4151 O   0  0  0  0  0
   -3.6868    1.6725    0.9979 O   0  0  0  0  0
   -2.8586    2.0599   -1.3396 O   0  0  0  0  0
   -2.8866   -4.4440   -1.0242 O   0  0  0  0  0
   -2.7299    1.3950   -0.0571 S   0  0  0  0  0
  1  9  1  0  0  0
  2 10  1  0  0  0
  3 11  1  0  0  0
  4  6  1  0  0  0
  5 12  1  0  0  0
  7  8  1  0  0  0
  8 13  1  0  0  0
  9 21  1  0  0  0
 10 22  1  0  0  0
 11 28  1  0  0  0
 13 24  1  0  0  0
 14 16  1  0  0  0
 14 21  1  0  0  0
 15 17  1  0  0  0
 15 21  1  0  0  0
 16 23  1  0  0  0
 17 23  1  0  0  0
 18 20  1  0  0  0
 19 28  1  0  0  0
 20 23  1  0  0  0
 29 12  1  0  0  0
 29 22  1  0  0  0
  1  2  2  0  0  0
  3  5  2  0  0  0
  4 11  2  0  0  0
  6 12  2  0  0  0
  7 10  2  0  0  0
  8  9  2  0  0  0
 13 25  2  0  0  0
 29 26  2  0  0  0
 29 27  2  0  0  0
M  CHG  2  23   1  24  -1
M  END
> <rmsd>
0.707215786

$$$$
ZINC64580576


 29 31  0  0  0  0  0  0  0  0999 V2000
    0.8685    2.5241   -2.5711 C   0  0  0  0  0
   -0.1073    2.5008   -1.5748 C   0  0  0  0  0
   -2.9067   -2.3078   -1.7772 C   0  0  0  0  0
   -3.5393   -2.5665    0.5401 C   0  0  0  0  0
   -2.7428   -0.9368   -1.5794 C   0  0  0  0  0
   -3.3754   -1.1955    0.7379 C   0  0  0  0  0
    0.8583    0.4765   -0.6765 C   0  0  0  0  0
    1.8341    0.4998   -1.6729 C   0  0  0  0  0
    1.8392    1.5236   -2.6203 C   0  0  0  0  0
   -0.1125    1.4771   -0.6274 C   0  0  0  0  0
   -3.3051   -3.1226   -0.7174 C   0  0  0  0  0
   -2.9771   -0.3807   -0.3218 C   0  0  0  0  0
    2.8490   -0.5702   -1.7021 C   0  0  0  0  0
    4.0524    2.2953   -3.3468 C   0  0  0  0  0
    2.3956    1.5188   -5.0342 C   0  0  0  0  0
    5.1854    1.7862   -4.2275 C   0  0  0  0  0
    3.5331    1.0159   -5.9139 C   0  0  0  0  0
    5.4122    1.6404   -8.0337 C   0  0  0  0  0
   -3.2080   -4.9626   -2.2211 C   0  0  0  0  0
    5.8825    1.4891   -6.6037 C   0  0  0  0  0
    2.8095    1.5650   -3.6282 N   0  0  0  0  0
   -1.1115    1.4536    0.3922 N   0  0  0  0  0
    4.7613    1.8553   -5.6726 N   0  0  0  0  0
    2.6044   -1.6335   -2.3834 O   0  0  0  0  0
    3.9420   -0.4014   -1.0451 O   0  0  0  0  0
   -3.5973    1.7225    1.0631 O   0  0  0  0  0
   -2.9654    2.0172   -1.3481 O   0  0  0  0  0
   -3.4647   -4.4604   -0.9104 O   0  0  0  0  0
   -2.7682    1.3589   -0.0710 S   0  0  0  0  0
  1  9  1  0  0  0
  2 10  1  0  0  0
  3 11  1  0  0  0
  4  6  1  0  0  0
  5 12  1  0  0  0
  7  8  1  0  0  0
  8 13  1  0  0  0
  9 21  1  0  0  0
 10 22  1  0  0  0
 11 28  1  0  0  0
 13 24  1  0  0  0
 14 16  1  0  0  0
 14 21  1  0  0  0
 15 17  1  0  0  0
 15 21  1  0  0  0
 16 23  1  0  0  0
 17 23  1  0  0  0
 18 20  1  0  0  0
 19 28  1  0  0  0
 20 23  1  0  0  0
 29 12  1  0  0  0
 29 22  1  0  0  0
  1  2  2  0  0  0
  3  5  2  0  0  0
  4 11  2  0  0  0
  6 12  2  0  0  0
  7 10  2  0  0  0
  8  9  2  0  0  0
 13 25  2  0  0  0
 29 26  2  0  0  0
 29 27  2  0  0  0
M  CHG  2  23   1  24  -1
M  END
> <rmsd>
0.526278019

$$$$
ZINC16924978


 28 30  0  0  0  0  0  0  0  0999 V2000
   -3.5855   -1.0598    0.5013 C   0  0  0  0  0
   -4.7939   -1.2949   -1.5776 C   0  0  0  0  0
   -3.7840   -2.4141    0.7698 C   0  0  0  0  0
   -4.9925   -2.6492   -1.3090 C   0  0  0  0  0
    1.3788   -1.6179    0.3163 C   0  0  0  0  0
   -4.0906   -0.5002   -0.6725 C   0  0  0  0  0
   -4.4875   -3.2088   -0.1353 C   0  0  0  0  0
    1.5814   -1.0124   -0.9062 C   0  0  0  0  0
    0.1571    0.4240   -0.0588 C   0  0  0  0  0
   -3.7730    1.8401    0.0786 C   0  0  0  0  0
   -3.8043    1.3773   -2.2514 C   0  0  0  0  0
   -0.9778    2.5677   -0.7359 C   0  0  0  0  0
    3.8784   -0.9316   -1.8061 C   0  0  0  0  0
   -3.4112    3.2081   -0.4509 C   0  0  0  0  0
   -4.1381   -5.0368    1.3453 C   0  0  0  0  0
    2.4680   -1.5084   -1.9773 C   0  0  0  0  0
   -1.9668    3.5456   -0.1192 C   0  0  0  0  0
    0.8815    0.1583   -1.1233 N   0  0  0  0  0
   -3.8852    0.8970   -0.9498 N   0  0  0  0  0
   -0.7073    1.5256    0.1463 N   0  0  0  0  0
    4.4725   -1.2697   -0.7434 O   0  0  0  0  0
   -3.9537    1.6659    1.2816 O   0  0  0  0  0
   -3.7808    0.7645   -3.3086 O   0  0  0  0  0
   -0.5180    2.7303   -1.8613 O   0  0  0  0  0
    4.2744   -0.1906   -2.7500 O   0  0  0  0  0
   -4.6811   -4.5301    0.1269 O   0  0  0  0  0
    0.2701   -0.6915    1.2403 S   0  0  0  0  0
   -3.6565    3.1258   -2.2343 S   0  0  0  0  0
  1  6  1  0  0  0
  2  4  1  0  0  0
  3  7  1  0  0  0
  5 27  1  0  0  0
  6 19  1  0  0  0
  7 26  1  0  0  0
  8 18  1  0  0  0
  9 20  1  0  0  0
  9 27  1  0  0  0
 10 19  1  0  0  0
 11 19  1  0  0  0
 11 28  1  0  0  0
 12 20  1  0  0  0
 13 21  1  0  0  0
 14 10  1  0  0  0
 14 17  1  0  0  0
 14 28  1  0  0  0
 15 26  1  0  0  0
 16  8  1  0  0  0
 16 13  1  0  0  0
 17 12  1  0  0  0
  1  3  2  0  0  0
  2  6  2  0  0  0
  4  7  2  0  0  0
  5  8  2  0  0  0
  9 18  2  0  0  0
 10 22  2  0  0  0
 11 23  2  0  0  0
 12 24  2  0  0  0
 13 25  2  0  0  0
M  CHG  1  21  -1
M  END
> <rmsd>
0.541907668

$$$$
ZINC12821881


 28 30  0  0  0  0  0  0  0  0999 V2000
   -5.2020    4.6804   -3.6031 C   0  0  0  0  0
   -5.8858    3.5479   -4.0451 C   0  0  0  0  0
   -3.5307   -1.9910    0.5426 C   0  0  0  0  0
   -4.9051    4.8314   -2.2485 C   0  0  0  0  0
   -6.2727    2.5664   -3.1328 C   0  0  0  0  0
   -2.1340   -2.1596    0.3170 C   0  0  0  0  0
   -4.1918   -1.5750   -0.5921 C   0  0  0  0  0
   -5.2921    3.8499   -1.3361 C   0  0  0  0  0
   -5.9759    2.7174   -1.7782 C   0  0  0  0  0
   -1.7808   -1.8663   -0.9820 C   0  0  0  0  0
   -0.4875   -1.9245   -1.5513 C   0  0  0  0  0
    1.6161   -1.5695   -1.9488 C   0  0  0  0  0
   -0.0120    1.1127   -0.3574 C   0  0  0  0  0
   -3.0670    2.7157    0.5980 C   0  0  0  0  0
   -3.5205    4.9752    1.5882 C   0  0  0  0  0
    0.6051   -0.2223    0.0102 C   0  0  0  0  0
   -3.6295    4.1067    0.3449 C   0  0  0  0  0
   -0.1443   -2.6832   -2.5676 N   0  0  0  0  0
    1.1939   -2.4574   -2.8205 N   0  0  0  0  0
    0.5903   -1.2062   -1.1301 N   0  0  0  0  0
   -1.0724    1.4352    0.4695 N   0  0  0  0  0
   -1.7246    2.6269    0.2790 N   0  0  0  0  0
    0.4107    1.8163   -1.2725 O   0  0  0  0  0
   -3.7500    1.7988    1.0498 O   0  0  0  0  0
   -4.9996    3.9999   -0.0039 O   0  0  0  0  0
   -6.3501    1.7710   -0.9063 F   0  0  0  0  0
    3.1940   -0.9543   -1.8429 S   0  0  0  0  0
   -3.1299   -1.3896   -1.9226 S   0  0  0  0  0
  1  2  1  0  0  0
  3  6  1  0  0  0
  4  8  1  0  0  0
  5  9  1  0  0  0
  7 28  1  0  0  0
  8 25  1  0  0  0
  9 26  1  0  0  0
 10 11  1  0  0  0
 10 28  1  0  0  0
 11 20  1  0  0  0
 12 19  1  0  0  0
 12 20  1  0  0  0
 13 21  1  0  0  0
 14 22  1  0  0  0
 15 17  1  0  0  0
 16 13  1  0  0  0
 16 20  1  0  0  0
 17 14  1  0  0  0
 17 25  1  0  0  0
 18 19  1  0  0  0
 21 22  1  0  0  0
  1  4  2  0  0  0
  2  5  2  0  0  0
  3  7  2  0  0  0
  6 10  2  0  0  0
  8  9  2  0  0  0
 11 18  2  0  0  0
 12 27  2  0  0  0
 13 23  2  0  0  0
 14 24  2  0  0  0
M  CHG  1  27  -1
M  END
> <rmsd>
0.593240142

$$$$
ZINC12821881


 28 30  0  0  0  0  0  0  0  0999 V2000
   -6.6967    5.9691   -2.0037 C   0  0  0  0  0
   -7.6762    5.0493   -2.3778 C   0  0  0  0  0
   -3.5306   -1.9902    0.5422 C   0  0  0  0  0
   -5.8024    5.6578   -0.9794 C   0  0  0  0  0
   -7.7615    3.8181   -1.7278 C   0  0  0  0  0
   -2.1338   -2.1588    0.3166 C   0  0  0  0  0
   -4.1916   -1.5742   -0.5924 C   0  0  0  0  0
   -5.8876    4.4265   -0.3294 C   0  0  0  0  0
   -6.8672    3.5067   -0.7036 C   0  0  0  0  0
   -1.7807   -1.8655   -0.9824 C   0  0  0  0  0
   -0.4874   -1.9237   -1.5516 C   0  0  0  0  0
    1.6162   -1.5687   -1.9492 C   0  0  0  0  0
   -0.0119    1.1135   -0.3578 C   0  0  0  0  0
   -3.0668    2.7165    0.5976 C   0  0  0  0  0
   -2.9215    5.1473    1.1986 C   0  0  0  0  0
    0.6053   -0.2216    0.0098 C   0  0  0  0  0
   -3.6294    4.1074    0.3445 C   0  0  0  0  0
   -0.1442   -2.6824   -2.5680 N   0  0  0  0  0
    1.1941   -2.4566   -2.8209 N   0  0  0  0  0
    0.5904   -1.2055   -1.1305 N   0  0  0  0  0
   -1.0723    1.4360    0.4691 N   0  0  0  0  0
   -1.7245    2.6277    0.2786 N   0  0  0  0  0
    0.4108    1.8171   -1.2729 O   0  0  0  0  0
   -3.7498    1.7996    1.0494 O   0  0  0  0  0
   -5.0073    4.1216    0.6780 O   0  0  0  0  0
   -6.9539    2.3223   -0.0828 F   0  0  0  0  0
    3.1941   -0.9535   -1.8432 S   0  0  0  0  0
   -3.1298   -1.3888   -1.9230 S   0  0  0  0  0
  1  2  1  0  0  0
  3  6  1  0  0  0
  4  8  1  0  0  0
  5  9  1  0  0  0
  7 28  1  0  0  0
  8 25  1  0  0  0
  9 26  1  0  0  0
 10 11  1  0  0  0
 10 28  1  0  0  0
 11 20  1  0  0  0
 12 19  1  0  0  0
 12 20  1  0  0  0
 13 21  1  0  0  0
 14 22  1  0  0  0
 15 17  1  0  0  0
 16 13  1  0  0  0
 16 20  1  0  0  0
 17 14  1  0  0  0
 17 25  1  0  0  0
 18 19  1  0  0  0
 21 22  1  0  0  0
  1  4  2  0  0  0
  2  5  2  0  0  0
  3  7  2  0  0  0
  6 10  2  0  0  0
  8  9  2  0  0  0
 11 18  2  0  0  0
 12 27  2  0  0  0
 13 23  2  0  0  0
 14 24  2  0  0  0
M  CHG  1  27  -1
M  END
> <rmsd>
0.593240023

$$$$
ZINC12821879


 28 30  0  0  0  0  0  0  0  0999 V2000
   -3.1509    6.5754    3.8182 C   0  0  0  0  0
   -4.0599    7.6333    3.8165 C   0  0  0  0  0
   -3.5308   -1.9905    0.5418 C   0  0  0  0  0
   -3.3487    5.4845    2.9716 C   0  0  0  0  0
   -5.1669    7.6004    2.9685 C   0  0  0  0  0
   -2.1340   -2.1592    0.3162 C   0  0  0  0  0
   -4.1918   -1.5745   -0.5929 C   0  0  0  0  0
   -4.4556    5.4516    2.1236 C   0  0  0  0  0
   -5.3648    6.5095    2.1220 C   0  0  0  0  0
   -1.7808   -1.8658   -0.9828 C   0  0  0  0  0
   -0.4875   -1.9240   -1.5520 C   0  0  0  0  0
    1.6161   -1.5690   -1.9494 C   0  0  0  0  0
   -0.0120    1.1131   -0.3580 C   0  0  0  0  0
   -3.0669    2.7161    0.5975 C   0  0  0  0  0
   -4.2325    4.2079   -1.0478 C   0  0  0  0  0
    0.6051   -0.2220    0.0096 C   0  0  0  0  0
   -3.6294    4.1071    0.3444 C   0  0  0  0  0
   -0.1443   -2.6826   -2.5684 N   0  0  0  0  0
    1.1940   -2.4568   -2.8212 N   0  0  0  0  0
    0.5903   -1.2058   -1.1307 N   0  0  0  0  0
   -1.0724    1.4356    0.4690 N   0  0  0  0  0
   -1.7245    2.6274    0.2785 N   0  0  0  0  0
    0.4108    1.8168   -1.2729 O   0  0  0  0  0
   -3.7500    1.7992    1.0492 O   0  0  0  0  0
   -4.6491    4.3778    1.2915 O   0  0  0  0  0
   -6.4301    6.4835    1.3094 F   0  0  0  0  0
    3.1940   -0.9538   -1.8434 S   0  0  0  0  0
   -3.1299   -1.3890   -1.9234 S   0  0  0  0  0
  1  2  1  0  0  0
  3  6  1  0  0  0
  4  8  1  0  0  0
  5  9  1  0  0  0
  7 28  1  0  0  0
  8 25  1  0  0  0
  9 26  1  0  0  0
 10 11  1  0  0  0
 10 28  1  0  0  0
 11 20  1  0  0  0
 12 19  1  0  0  0
 12 20  1  0  0  0
 13 21  1  0  0  0
 14 22  1  0  0  0
 15 17  1  0  0  0
 16 13  1  0  0  0
 16 20  1  0  0  0
 17 14  1  0  0  0
 17 25  1  0  0  0
 18 19  1  0  0  0
 21 22  1  0  0  0
  1  4  2  0  0  0
  2  5  2  0  0  0
  3  7  2  0  0  0
  6 10  2  0  0  0
  8  9  2  0  0  0
 11 18  2  0  0  0
 12 27  2  0  0  0
 13 23  2  0  0  0
 14 24  2  0  0  0
M  CHG  1  27  -1
M  END
> <rmsd>
0.593280792

$$$$
ZINC35397611


 29 31  0  0  0  0  0  0  0  0999 V2000
   -3.0531   -2.6475    0.5636 C   0  0  0  0  0
   -3.3321   -3.1273   -0.7160 C   0  0  0  0  0
    0.8668    0.4567   -0.6603 C   0  0  0  0  0
   -3.2613   -0.8713   -1.5775 C   0  0  0  0  0
   -0.0689    2.4439   -1.5726 C   0  0  0  0  0
    1.8337    0.4897   -1.6590 C   0  0  0  0  0
   -2.8782   -1.2795    0.7728 C   0  0  0  0  0
   -0.1062    1.4487   -0.6092 C   0  0  0  0  0
   -3.4362   -2.2392   -1.7865 C   0  0  0  0  0
   -2.9822   -0.3914   -0.2978 C   0  0  0  0  0
    1.7840    1.5277   -2.5755 C   0  0  0  0  0
    2.8633   -0.5624   -1.7110 C   0  0  0  0  0
    2.4371    3.9878   -5.7307 C   0  0  0  0  0
    3.8001    4.2159   -5.0741 C   0  0  0  0  0
    2.3299    2.7043   -6.5570 C   0  0  0  0  0
    3.8953    3.7819   -3.6115 C   0  0  0  0  0
    1.6865    1.5210   -5.8343 C   0  0  0  0  0
    4.0252    2.2750   -3.4017 C   0  0  0  0  0
    2.5974    0.8151   -4.8324 C   0  0  0  0  0
   -2.5799   -0.7987    2.1552 C   0  0  0  0  0
    0.8544    2.5092   -2.5579 N   0  0  0  0  0
    2.7535    1.5674   -3.5831 N   0  0  0  0  0
   -1.1102    1.4418    0.4019 N   0  0  0  0  0
    2.6281   -1.6247   -2.3988 O   0  0  0  0  0
    3.9632   -0.3838   -1.0663 O   0  0  0  0  0
   -3.6007    1.7335    1.0543 O   0  0  0  0  0
   -2.9516    1.9922   -1.3563 O   0  0  0  0  0
   -3.7042   -2.7001   -3.0154 F   0  0  0  0  0
   -2.7661    1.3503   -0.0691 S   0  0  0  0  0
  1  7  1  0  0  0
  2  9  1  0  0  0
  3  8  1  0  0  0
  4 10  1  0  0  0
  5 21  1  0  0  0
  6 11  1  0  0  0
  6 12  1  0  0  0
  8 23  1  0  0  0
  9 28  1  0  0  0
 11 22  1  0  0  0
 12 24  1  0  0  0
 13 14  1  0  0  0
 13 15  1  0  0  0
 14 16  1  0  0  0
 15 17  1  0  0  0
 16 18  1  0  0  0
 17 19  1  0  0  0
 18 22  1  0  0  0
 19 22  1  0  0  0
 20  7  1  0  0  0
 29 10  1  0  0  0
 29 23  1  0  0  0
  1  2  2  0  0  0
  3  6  2  0  0  0
  4  9  2  0  0  0
  5  8  2  0  0  0
  7 10  2  0  0  0
 11 21  2  0  0  0
 12 25  2  0  0  0
 29 26  2  0  0  0
 29 27  2  0  0  0
M  CHG  1  24  -1
M  END
> <rmsd>
0.512428701

$$$$
ZINC35397611


 29 31  0  0  0  0  0  0  0  0999 V2000
   -2.7576   -2.6321    0.5035 C   0  0  0  0  0
   -2.8786   -3.1083   -0.8019 C   0  0  0  0  0
    1.0028    0.7873   -0.3132 C   0  0  0  0  0
   -2.9058   -0.8379   -1.6276 C   0  0  0  0  0
    0.0023    2.7129   -1.2867 C   0  0  0  0  0
    2.0522    0.9132   -1.2166 C   0  0  0  0  0
   -2.7108   -1.2588    0.7435 C   0  0  0  0  0
   -0.0456    1.7002   -0.3424 C   0  0  0  0  0
   -2.9528   -2.2112   -1.8674 C   0  0  0  0  0
   -2.7848   -0.3617   -0.3221 C   0  0  0  0  0
    2.0062    1.9610   -2.1221 C   0  0  0  0  0
    3.1616   -0.0552   -1.1838 C   0  0  0  0  0
    2.7529    4.5221   -5.1745 C   0  0  0  0  0
    4.0273    4.8424   -4.3907 C   0  0  0  0  0
    2.8237    3.2496   -6.0215 C   0  0  0  0  0
    4.0207    4.3901   -2.9306 C   0  0  0  0  0
    2.2111    2.0070   -5.3756 C   0  0  0  0  0
    4.2485    2.8941   -2.7264 C   0  0  0  0  0
    3.0781    1.3551   -4.3008 C   0  0  0  0  0
   -2.5802   -0.7820    2.1531 C   0  0  0  0  0
    1.0047    2.8674   -2.1806 N   0  0  0  0  0
    3.0585    2.0940   -3.0340 N   0  0  0  0  0
   -1.1351    1.5972    0.5703 N   0  0  0  0  0
    3.0751   -1.1196   -1.9025 O   0  0  0  0  0
    4.1799    0.1957   -0.4371 O   0  0  0  0  0
   -3.6905    1.6838    0.9899 O   0  0  0  0  0
   -2.8436    2.0363   -1.3463 O   0  0  0  0  0
   -3.0690   -2.6686   -3.1211 F   0  0  0  0  0
   -2.7281    1.3870   -0.0546 S   0  0  0  0  0
  1  7  1  0  0  0
  2  9  1  0  0  0
  3  8  1  0  0  0
  4 10  1  0  0  0
  5 21  1  0  0  0
  6 11  1  0  0  0
  6 12  1  0  0  0
  8 23  1  0  0  0
  9 28  1  0  0  0
 11 22  1  0  0  0
 12 24  1  0  0  0
 13 14  1  0  0  0
 13 15  1  0  0  0
 14 16  1  0  0  0
 15 17  1  0  0  0
 16 18  1  0  0  0
 17 19  1  0  0  0
 18 22  1  0  0  0
 19 22  1  0  0  0
 20  7  1  0  0  0
 29 10  1  0  0  0
 29 23  1  0  0  0
  1  2  2  0  0  0
  3  6  2  0  0  0
  4  9  2  0  0  0
  5  8  2  0  0  0
  7 10  2  0  0  0
 11 21  2  0  0  0
 12 25  2  0  0  0
 29 26  2  0  0  0
 29 27  2  0  0  0
M  CHG  1  24  -1
M  END
> <rmsd>
0.692023039

$$$$
ZINC58009272


 29 31  0  0  0  0  0  0  0  0999 V2000
    1.9422    1.5937   -2.4781 C   0  0  0  0  0
    1.0430    2.6557   -2.3841 C   0  0  0  0  0
   -3.4460   -2.5783    0.5038 C   0  0  0  0  0
   -2.7514   -2.2972   -1.7931 C   0  0  0  0  0
   -3.3188   -1.2047    0.7104 C   0  0  0  0  0
   -2.6244   -0.9236   -1.5866 C   0  0  0  0  0
    0.8205    0.4820   -0.6496 C   0  0  0  0  0
    1.8310    0.5067   -1.6109 C   0  0  0  0  0
    0.0325    2.6310   -1.4229 C   0  0  0  0  0
   -0.0788    1.5442   -0.5557 C   0  0  0  0  0
   -3.1622   -3.1246   -0.7479 C   0  0  0  0  0
   -2.9081   -0.3774   -0.3348 C   0  0  0  0  0
    2.7799   -0.6138   -1.7107 C   0  0  0  0  0
   -1.1537    4.4379   -2.5849 C   0  0  0  0  0
   -0.9520    4.4828   -0.1045 C   0  0  0  0  0
   -2.5004    5.1416   -2.4864 C   0  0  0  0  0
   -2.2974    5.1914   -0.0118 C   0  0  0  0  0
   -4.8769    8.9211   -2.0218 C   0  0  0  0  0
   -3.6493    8.0285   -2.1056 C   0  0  0  0  0
   -3.7714    6.8363   -1.1700 C   0  0  0  0  0
   -0.8595    3.7069   -1.3453 N   0  0  0  0  0
   -1.1069    1.4966    0.4381 N   0  0  0  0  0
   -2.5172    6.0128   -1.2561 N   0  0  0  0  0
    2.6559   -1.6053   -0.8980 O   0  0  0  0  0
    3.7034   -0.5661   -2.6070 O   0  0  0  0  0
   -3.6134    1.7059    1.0394 O   0  0  0  0  0
   -2.9224    2.0242   -1.3523 O   0  0  0  0  0
   -3.2829   -4.4438   -0.9459 F   0  0  0  0  0
   -2.7455    1.3655   -0.0726 S   0  0  0  0  0
  1  8  1  0  0  0
  2  9  1  0  0  0
  3 11  1  0  0  0
  4  6  1  0  0  0
  5 12  1  0  0  0
  7 10  1  0  0  0
  8 13  1  0  0  0
  9 21  1  0  0  0
 10 22  1  0  0  0
 11 28  1  0  0  0
 13 24  1  0  0  0
 14 16  1  0  0  0
 14 21  1  0  0  0
 15 17  1  0  0  0
 15 21  1  0  0  0
 16 23  1  0  0  0
 17 23  1  0  0  0
 18 19  1  0  0  0
 19 20  1  0  0  0
 20 23  1  0  0  0
 29 12  1  0  0  0
 29 22  1  0  0  0
  1  2  2  0  0  0
  3  5  2  0  0  0
  4 11  2  0  0  0
  6 12  2  0  0  0
  7  8  2  0  0  0
  9 10  2  0  0  0
 13 25  2  0  0  0
 29 26  2  0  0  0
 29 27  2  0  0  0
M  CHG  2  23   1  24  -1
M  END
> <rmsd>
0.58935219

$$$$
ZINC33253577


 29 30  0  0  0  0  0  0  0  0999 V2000
   -0.0378    2.7669   -1.2904 C   0  0  0  0  0
    1.0215    2.8836   -2.1903 C   0  0  0  0  0
   -3.2441   -2.5883    0.4334 C   0  0  0  0  0
   -2.4191   -2.2387   -1.8103 C   0  0  0  0  0
   -3.2077   -1.2127    0.6612 C   0  0  0  0  0
   -2.3827   -0.8629   -1.5825 C   0  0  0  0  0
    0.9952    0.8062   -0.3285 C   0  0  0  0  0
    2.0545    0.9227   -1.2285 C   0  0  0  0  0
   -0.0509    1.7282   -0.3594 C   0  0  0  0  0
    2.0676    1.9614   -2.1594 C   0  0  0  0  0
   -2.8498   -3.1013   -0.8024 C   0  0  0  0  0
   -2.7770   -0.3501   -0.3467 C   0  0  0  0  0
    3.1486   -0.0650   -1.1742 C   0  0  0  0  0
    5.9856    2.1136   -2.1871 C   0  0  0  0  0
    5.7945    4.6066   -1.9176 C   0  0  0  0  0
    1.9223    2.0129   -5.8036 C   0  0  0  0  0
    2.6127   -0.4030   -5.9108 C   0  0  0  0  0
    3.9304    3.3244   -3.0718 C   0  0  0  0  0
    3.4526    1.0573   -4.0099 C   0  0  0  0  0
    5.0242    3.2879   -1.9976 C   0  0  0  0  0
    2.3052    0.7770   -4.9879 C   0  0  0  0  0
   -1.1358    1.6087    0.5611 N   0  0  0  0  0
    3.1083    2.0935   -3.0609 N   0  0  0  0  0
    3.0529   -1.1310   -1.8877 O   0  0  0  0  0
    4.1590    0.1751   -0.4152 O   0  0  0  0  0
   -3.6866    1.6728    0.9975 O   0  0  0  0  0
   -2.8580    2.0604   -1.3397 O   0  0  0  0  0
   -2.8835   -4.4225   -1.0207 F   0  0  0  0  0
   -2.7295    1.3954   -0.0572 S   0  0  0  0  0
  1  9  1  0  0  0
  2 10  1  0  0  0
  3 11  1  0  0  0
  4  6  1  0  0  0
  5 12  1  0  0  0
  7  8  1  0  0  0
  8 13  1  0  0  0
  9 22  1  0  0  0
 10 23  1  0  0  0
 11 28  1  0  0  0
 13 24  1  0  0  0
 14 20  1  0  0  0
 15 20  1  0  0  0
 16 21  1  0  0  0
 17 21  1  0  0  0
 18 20  1  0  0  0
 18 23  1  0  0  0
 19 21  1  0  0  0
 19 23  1  0  0  0
 29 12  1  0  0  0
 29 22  1  0  0  0
  1  2  2  0  0  0
  3  5  2  0  0  0
  4 11  2  0  0  0
  6 12  2  0  0  0
  7  9  2  0  0  0
  8 10  2  0  0  0
 13 25  2  0  0  0
 29 26  2  0  0  0
 29 27  2  0  0  0
M  CHG  1  24  -1
M  END
> <rmsd>
0.707516074

$$$$
ZINC33253577


 29 30  0  0  0  0  0  0  0  0999 V2000
   -0.1065    2.5011   -1.5745 C   0  0  0  0  0
    0.8692    2.5241   -2.5711 C   0  0  0  0  0
   -3.5395   -2.5660    0.5394 C   0  0  0  0  0
   -2.9049   -2.3077   -1.7774 C   0  0  0  0  0
   -3.3759   -1.1950    0.7372 C   0  0  0  0  0
   -2.7412   -0.9365   -1.5796 C   0  0  0  0  0
    0.8583    0.4764   -0.6765 C   0  0  0  0  0
    1.8339    0.4992   -1.6731 C   0  0  0  0  0
   -0.1119    1.4772   -0.6272 C   0  0  0  0  0
    1.8394    1.5231   -2.6204 C   0  0  0  0  0
   -3.3040   -3.1224   -0.7179 C   0  0  0  0  0
   -2.9767   -0.3803   -0.3223 C   0  0  0  0  0
    2.8489   -0.5706   -1.7024 C   0  0  0  0  0
    5.7373    1.3669   -3.0151 C   0  0  0  0  0
    5.7653    3.8701   -2.7755 C   0  0  0  0  0
    1.3560    1.5444   -6.2356 C   0  0  0  0  0
    1.8450   -0.9193   -6.3615 C   0  0  0  0  0
    3.7075    2.7252   -3.7273 C   0  0  0  0  0
    2.9702    0.4920   -4.5745 C   0  0  0  0  0
    4.8915    2.6151   -2.7590 C   0  0  0  0  0
    1.7176    0.2916   -5.4362 C   0  0  0  0  0
   -1.1113    1.4538    0.3923 N   0  0  0  0  0
    2.7977    1.5628   -3.6170 N   0  0  0  0  0
    2.6045   -1.6339   -2.3839 O   0  0  0  0  0
    3.9418   -0.4020   -1.0451 O   0  0  0  0  0
   -3.5971    1.7229    1.0627 O   0  0  0  0  0
   -2.9648    2.0177   -1.3483 O   0  0  0  0  0
   -3.4598   -4.4392   -0.9074 F   0  0  0  0  0
   -2.7678    1.3592   -0.0711 S   0  0  0  0  0
  1  9  1  0  0  0
  2 10  1  0  0  0
  3 11  1  0  0  0
  4  6  1  0  0  0
  5 12  1  0  0  0
  7  8  1  0  0  0
  8 13  1  0  0  0
  9 22  1  0  0  0
 10 23  1  0  0  0
 11 28  1  0  0  0
 13 24  1  0  0  0
 14 20  1  0  0  0
 15 20  1  0  0  0
 16 21  1  0  0  0
 17 21  1  0  0  0
 18 20  1  0  0  0
 18 23  1  0  0  0
 19 21  1  0  0  0
 19 23  1  0  0  0
 29 12  1  0  0  0
 29 22  1  0  0  0
  1  2  2  0  0  0
  3  5  2  0  0  0
  4 11  2  0  0  0
  6 12  2  0  0  0
  7  9  2  0  0  0
  8 10  2  0  0  0
 13 25  2  0  0  0
 29 26  2  0  0  0
 29 27  2  0  0  0
M  CHG  1  24  -1
M  END
> <rmsd>
0.526454568

$$$$
ZINC12787857


 29 30  0  0  0  0  0  0  0  0999 V2000
    1.1858    2.3304   -2.1836 C   0  0  0  0  0
    2.0340    1.2235   -2.1631 C   0  0  0  0  0
   -3.4886   -2.2888   -1.6595 C   0  0  0  0  0
   -3.1140   -2.6040    0.7063 C   0  0  0  0  0
    0.7503    0.2732   -0.3503 C   0  0  0  0  0
   -3.3935   -3.1334   -0.5535 C   0  0  0  0  0
   -3.3040   -0.9147   -1.5057 C   0  0  0  0  0
   -2.9295   -1.2300    0.8602 C   0  0  0  0  0
    0.1197    2.4089   -1.2874 C   0  0  0  0  0
   -0.0981    1.3803   -0.3709 C   0  0  0  0  0
    1.8163    0.1947   -1.2465 C   0  0  0  0  0
   -3.0246   -0.3853   -0.2458 C   0  0  0  0  0
   -3.4145   -0.0413   -2.7132 C   0  0  0  0  0
   -2.6320   -0.6988    2.2250 C   0  0  0  0  0
   -2.5475   -5.2071   -1.7068 C   0  0  0  0  0
   -5.0117   -4.9224   -1.2798 C   0  0  0  0  0
   -3.4625   -5.4481    0.5923 C   0  0  0  0  0
   -0.5422    4.6157   -2.2454 C   0  0  0  0  0
   -1.5933    5.6825   -1.9991 C   0  0  0  0  0
   -3.5979   -4.6480   -0.7230 C   0  0  0  0  0
   -0.7273    3.5388   -1.3244 N   0  0  0  0  0
   -1.1900    1.4397    0.5633 N   0  0  0  0  0
    2.6796   -0.9324   -1.2274 N   0  0  0  0  0
    3.6317   -0.9830   -2.0432 O   0  0  0  0  0
    2.4671   -1.8470   -0.3950 O   0  0  0  0  0
   -3.7103    1.7914    0.9859 O   0  0  0  0  0
   -2.8551    1.9633   -1.3675 O   0  0  0  0  0
   -2.8859    5.1309   -2.2154 O   0  0  0  0  0
   -2.7941    1.3433   -0.0526 S   0  0  0  0  0
  1  9  1  0  0  0
  2 11  1  0  0  0
  3  7  1  0  0  0
  4  6  1  0  0  0
  5 10  1  0  0  0
  8 12  1  0  0  0
  9 21  1  0  0  0
 10 22  1  0  0  0
 11 23  1  0  0  0
 13  7  1  0  0  0
 14  8  1  0  0  0
 15 20  1  0  0  0
 16 20  1  0  0  0
 17 20  1  0  0  0
 18 19  1  0  0  0
 18 21  1  0  0  0
 19 28  1  0  0  0
 20  6  1  0  0  0
 23 24  1  0  0  0
 29 12  1  0  0  0
 29 22  1  0  0  0
  1  2  2  0  0  0
  3  6  2  0  0  0
  4  8  2  0  0  0
  5 11  2  0  0  0
  7 12  2  0  0  0
  9 10  2  0  0  0
 23 25  2  0  0  0
 29 26  2  0  0  0
 29 27  2  0  0  0
M  CHG  2  23   1  24  -1
M  END
> <rmsd>
0.428182304

$$$$
ZINC13340992


 27 28  0  0  0  0  0  0  0  0999 V2000
   -3.3845   -1.1921    0.7415 C   0  0  0  0  0
   -3.5521   -2.5629    0.5462 C   0  0  0  0  0
    1.8470    1.5098   -2.6078 C   0  0  0  0  0
   -0.1018    2.4917   -1.5710 C   0  0  0  0  0
    0.8577    0.4678   -0.6654 C   0  0  0  0  0
   -2.7458   -0.9401   -1.5749 C   0  0  0  0  0
    0.8775    2.5117   -2.5641 C   0  0  0  0  0
    1.8371    0.4878   -1.6585 C   0  0  0  0  0
   -2.9133   -2.3110   -1.7701 C   0  0  0  0  0
   -0.1117    1.4698   -0.6217 C   0  0  0  0  0
   -2.9814   -0.3806   -0.3190 C   0  0  0  0  0
   -3.3165   -3.1225   -0.7096 C   0  0  0  0  0
    0.8879    3.5902   -3.5659 C   0  0  0  0  0
    2.8602   -0.5697   -1.7048 C   0  0  0  0  0
   -2.6510   -2.8720   -3.1306 C   0  0  0  0  0
   -1.1131    1.4504    0.3959 N   0  0  0  0  0
   -0.0187    4.5027   -3.5032 O   0  0  0  0  0
    2.8287   -1.5014   -0.8164 O   0  0  0  0  0
    1.8029    3.5855   -4.4721 O   0  0  0  0  0
    3.7529   -0.5278   -2.6319 O   0  0  0  0  0
   -3.5995    1.7264    1.0609 O   0  0  0  0  0
   -2.9619    2.0155   -1.3493 O   0  0  0  0  0
   -2.2660   -1.9320   -4.0418 F   0  0  0  0  0
   -1.6645   -3.8146   -3.1487 F   0  0  0  0  0
   -3.7494   -3.4770   -3.6662 F   0  0  0  0  0
   -2.7689    1.3589   -0.0707 S   0  0  0  0  0
   -3.5342   -4.8225   -0.9138 Cl  0  0  0  0  0
  1  2  1  0  0  0
  3  7  1  0  0  0
  4 10  1  0  0  0
  5  8  1  0  0  0
  6 11  1  0  0  0
  7 13  1  0  0  0
  8 14  1  0  0  0
  9 12  1  0  0  0
 10 16  1  0  0  0
 12 27  1  0  0  0
 13 17  1  0  0  0
 14 18  1  0  0  0
 15  9  1  0  0  0
 15 23  1  0  0  0
 15 24  1  0  0  0
 15 25  1  0  0  0
 26 11  1  0  0  0
 26 16  1  0  0  0
  1 11  2  0  0  0
  2 12  2  0  0  0
  3  8  2  0  0  0
  4  7  2  0  0  0
  5 10  2  0  0  0
  6  9  2  0  0  0
 13 19  2  0  0  0
 14 20  2  0  0  0
 26 21  2  0  0  0
 26 22  2  0  0  0
M  CHG  2  17  -1  18  -1
M  END
> <rmsd>
0.518427968

$$$$
ZINC13340992


 27 28  0  0  0  0  0  0  0  0999 V2000
   -2.7454   -0.9406   -1.5741 C   0  0  0  0  0
   -2.9126   -2.3114   -1.7697 C   0  0  0  0  0
    1.8467    1.5089   -2.6085 C   0  0  0  0  0
   -0.1021    2.4910   -1.5719 C   0  0  0  0  0
    0.8580    0.4676   -0.6655 C   0  0  0  0  0
   -3.3839   -1.1930    0.7423 C   0  0  0  0  0
    0.8770    2.5106   -2.5651 C   0  0  0  0  0
    1.8371    0.4874   -1.6588 C   0  0  0  0  0
   -3.5512   -2.5640    0.5468 C   0  0  0  0  0
   -0.1117    1.4694   -0.6221 C   0  0  0  0  0
   -2.9809   -0.3813   -0.3181 C   0  0  0  0  0
   -3.3156   -3.1231   -0.7093 C   0  0  0  0  0
    0.8871    3.5886   -3.5674 C   0  0  0  0  0
    2.8604   -0.5700   -1.7048 C   0  0  0  0  0
   -3.9838   -3.3997    1.7081 C   0  0  0  0  0
   -1.1128    1.4503    0.3957 N   0  0  0  0  0
   -0.0197    4.5010   -3.5050 O   0  0  0  0  0
    2.8293   -1.5013   -0.8160 O   0  0  0  0  0
    1.8019    3.5837   -4.4738 O   0  0  0  0  0
    3.7530   -0.5284   -2.6320 O   0  0  0  0  0
   -3.5991    1.7262    1.0610 O   0  0  0  0  0
   -2.9620    2.0143   -1.3495 O   0  0  0  0  0
   -4.1665   -2.6837    2.8554 F   0  0  0  0  0
   -5.1649   -4.0503    1.4993 F   0  0  0  0  0
   -3.0777   -4.3700    2.0191 F   0  0  0  0  0
   -2.7687    1.3583   -0.0706 S   0  0  0  0  0
   -3.5119   -4.8151   -0.9886 Cl  0  0  0  0  0
  1  2  1  0  0  0
  3  7  1  0  0  0
  4 10  1  0  0  0
  5  8  1  0  0  0
  6 11  1  0  0  0
  7 13  1  0  0  0
  8 14  1  0  0  0
  9 12  1  0  0  0
 10 16  1  0  0  0
 12 27  1  0  0  0
 13 17  1  0  0  0
 14 18  1  0  0  0
 15  9  1  0  0  0
 15 23  1  0  0  0
 15 24  1  0  0  0
 15 25  1  0  0  0
 26 11  1  0  0  0
 26 16  1  0  0  0
  1 11  2  0  0  0
  2 12  2  0  0  0
  3  8  2  0  0  0
  4  7  2  0  0  0
  5 10  2  0  0  0
  6  9  2  0  0  0
 13 19  2  0  0  0
 14 20  2  0  0  0
 26 21  2  0  0  0
 26 22  2  0  0  0
M  CHG  2  17  -1  18  -1
M  END
> <rmsd>
0.518518269

$$$$
ZINC16925350


 28 30  0  0  0  0  0  0  0  0999 V2000
   -3.3052   -1.0763    0.4570 C   0  0  0  0  0
   -4.1998   -1.4385   -1.7578 C   0  0  0  0  0
    2.2740   -1.1747    0.1946 C   0  0  0  0  0
    1.4228   -1.1356    1.2988 C   0  0  0  0  0
   -3.3951   -2.4437    0.7170 C   0  0  0  0  0
   -4.2896   -2.8060   -1.4978 C   0  0  0  0  0
    1.1551    0.7537   -0.7363 C   0  0  0  0  0
   -3.7076   -0.5737   -0.7804 C   0  0  0  0  0
    0.3038    0.7928    0.3679 C   0  0  0  0  0
    2.1403   -0.2300   -0.8230 C   0  0  0  0  0
    0.4376   -0.1519    1.3855 C   0  0  0  0  0
   -3.8873   -3.3086   -0.2604 C   0  0  0  0  0
   -3.7367    1.7876   -0.0281 C   0  0  0  0  0
   -3.4141    1.3225   -2.3356 C   0  0  0  0  0
   -0.9501    2.8045   -0.4822 C   0  0  0  0  0
   -3.4532    3.1857   -0.5257 C   0  0  0  0  0
   -2.1078    3.6734   -0.0137 C   0  0  0  0  0
   -3.6145    0.8373   -1.0487 N   0  0  0  0  0
   -0.6903    1.7972    0.4428 N   0  0  0  0  0
    3.0080   -0.2696   -1.9465 N   0  0  0  0  0
    3.8878   -1.1625   -2.0039 O   0  0  0  0  0
   -4.0543    1.5960    1.1435 O   0  0  0  0  0
   -3.1886    0.7150   -3.3717 O   0  0  0  0  0
   -0.3662    3.0138   -1.5403 O   0  0  0  0  0
    2.8708    0.5889   -2.8512 O   0  0  0  0  0
   -0.3840   -0.1311    2.4727 O   0  0  0  0  0
   -3.4528    3.0769   -2.3244 S   0  0  0  0  0
   -3.9981   -4.9960    0.0605 Cl  0  0  0  0  0
  1  5  1  0  0  0
  2  8  1  0  0  0
  3 10  1  0  0  0
  4 11  1  0  0  0
  6 12  1  0  0  0
  7  9  1  0  0  0
  8 18  1  0  0  0
  9 19  1  0  0  0
 10 20  1  0  0  0
 11 26  1  0  0  0
 12 28  1  0  0  0
 13 18  1  0  0  0
 14 18  1  0  0  0
 14 27  1  0  0  0
 15 19  1  0  0  0
 16 13  1  0  0  0
 16 17  1  0  0  0
 16 27  1  0  0  0
 17 15  1  0  0  0
 20 21  1  0  0  0
  1  8  2  0  0  0
  2  6  2  0  0  0
  3  4  2  0  0  0
  5 12  2  0  0  0
  7 10  2  0  0  0
  9 11  2  0  0  0
 13 22  2  0  0  0
 14 23  2  0  0  0
 15 24  2  0  0  0
 20 25  2  0  0  0
M  CHG  2  20   1  21  -1
M  END
> <rmsd>
0.400846213

$$$$
ZINC01800283


 29 30  0  0  0  0  0  0  0  0999 V2000
    2.5309    1.2254    1.1698 C   0  0  0  0  0
   -3.0485   -1.0118   -1.6711 C   0  0  0  0  0
   -2.5210   -1.0735    0.6858 C   0  0  0  0  0
    1.1708    1.5159    1.2762 C   0  0  0  0  0
    2.9996    0.4634    0.0995 C   0  0  0  0  0
   -3.4974   -2.3307   -1.6052 C   0  0  0  0  0
   -2.9700   -2.3924    0.7517 C   0  0  0  0  0
    0.7481    0.2824   -0.7577 C   0  0  0  0  0
   -2.5602   -0.3831   -0.5257 C   0  0  0  0  0
    0.2794    1.0444    0.3126 C   0  0  0  0  0
    2.1082   -0.0081   -0.8642 C   0  0  0  0  0
   -3.4582   -3.0211   -0.3938 C   0  0  0  0  0
   -6.1329    2.9661    1.3573 C   0  0  0  0  0
   -4.7242    2.4165    3.3735 C   0  0  0  0  0
   -5.2274    1.5215   -3.6063 C   0  0  0  0  0
   -4.6697    3.8387   -2.7872 C   0  0  0  0  0
   -3.8295   -4.9551    0.9394 C   0  0  0  0  0
   -2.0736    1.0476   -0.5973 C   0  0  0  0  0
   -4.7225    2.8442    1.9137 C   0  0  0  0  0
   -4.3391    2.3567   -2.6969 C   0  0  0  0  0
   -1.0728    1.3332    0.4184 N   0  0  0  0  0
    2.5864   -0.7854   -1.9524 N   0  0  0  0  0
    3.8136   -1.0359   -2.0273 O   0  0  0  0  0
    1.7686   -1.2006   -2.8086 O   0  0  0  0  0
   -2.8631    3.7066   -0.3518 O   0  0  0  0  0
   -3.8975   -4.3077   -0.3303 O   0  0  0  0  0
   -4.0005    1.8943    1.1502 O   0  0  0  0  0
   -4.5031    1.9228   -1.3581 O   0  0  0  0  0
   -3.3491    2.2864   -0.2801 P   0  0  0  0  0
  1  5  1  0  0  0
  2  9  1  0  0  0
  3  7  1  0  0  0
  4 10  1  0  0  0
  6 12  1  0  0  0
  8 11  1  0  0  0
 10 21  1  0  0  0
 11 22  1  0  0  0
 12 26  1  0  0  0
 13 19  1  0  0  0
 14 19  1  0  0  0
 15 20  1  0  0  0
 16 20  1  0  0  0
 17 26  1  0  0  0
 18  9  1  0  0  0
 18 21  1  0  0  0
 18 29  1  0  0  0
 19 27  1  0  0  0
 20 28  1  0  0  0
 22 23  1  0  0  0
 29 27  1  0  0  0
 29 28  1  0  0  0
  1  4  2  0  0  0
  2  6  2  0  0  0
  3  9  2  0  0  0
  5 11  2  0  0  0
  7 12  2  0  0  0
  8 10  2  0  0  0
 22 24  2  0  0  0
 29 25  2  0  0  0
M  CHG  2  22   1  23  -1
M  END
> <rmsd>
0.53425473

$$$$
ZINC35397508


 29 30  0  0  0  0  0  0  0  0999 V2000
   -3.2785   -2.5840    0.4526 C   0  0  0  0  0
   -2.4319   -2.2553   -1.7862 C   0  0  0  0  0
   -3.2321   -1.2073    0.6723 C   0  0  0  0  0
   -2.3855   -0.8786   -1.5666 C   0  0  0  0  0
    1.0046    0.7853   -0.3105 C   0  0  0  0  0
    0.0114    2.7196   -1.2741 C   0  0  0  0  0
    2.0568    0.9146   -1.2102 C   0  0  0  0  0
   -0.0415    1.7008   -0.3365 C   0  0  0  0  0
   -2.8783   -3.1080   -0.7767 C   0  0  0  0  0
   -2.7856   -0.3546   -0.3373 C   0  0  0  0  0
    2.0157    1.9684   -2.1088 C   0  0  0  0  0
    3.1638   -0.0566   -1.1806 C   0  0  0  0  0
    5.9336    2.1222   -2.1244 C   0  0  0  0  0
    5.7408    4.6145   -1.8488 C   0  0  0  0  0
    1.8812    2.0295   -5.7532 C   0  0  0  0  0
    2.5730   -0.3858   -5.8649 C   0  0  0  0  0
    3.8807    3.3346   -3.0119 C   0  0  0  0  0
    3.4066    1.0697   -3.9577 C   0  0  0  0  0
    4.9713    3.2957   -1.9346 C   0  0  0  0  0
    2.2622    0.7917   -4.9399 C   0  0  0  0  0
    1.0166    2.8775   -2.1641 N   0  0  0  0  0
   -1.1339    1.5945    0.5725 N   0  0  0  0  0
    3.0591    2.1034   -3.0068 N   0  0  0  0  0
    3.0768   -1.1161   -1.9066 O   0  0  0  0  0
    4.1806    0.1869   -0.4295 O   0  0  0  0  0
   -3.6901    1.6845    0.9856 O   0  0  0  0  0
   -2.8360    2.0502   -1.3459 O   0  0  0  0  0
   -2.9215   -4.4302   -0.9872 F   0  0  0  0  0
   -2.7255    1.3921   -0.0582 S   0  0  0  0  0
  1  9  1  0  0  0
  2  4  1  0  0  0
  3 10  1  0  0  0
  5  8  1  0  0  0
  6 21  1  0  0  0
  7 11  1  0  0  0
  7 12  1  0  0  0
  8 22  1  0  0  0
  9 28  1  0  0  0
 11 23  1  0  0  0
 12 24  1  0  0  0
 13 19  1  0  0  0
 14 19  1  0  0  0
 15 20  1  0  0  0
 16 20  1  0  0  0
 17 19  1  0  0  0
 17 23  1  0  0  0
 18 20  1  0  0  0
 18 23  1  0  0  0
 29 10  1  0  0  0
 29 22  1  0  0  0
  1  3  2  0  0  0
  2  9  2  0  0  0
  4 10  2  0  0  0
  5  7  2  0  0  0
  6  8  2  0  0  0
 11 21  2  0  0  0
 12 25  2  0  0  0
 29 26  2  0  0  0
 29 27  2  0  0  0
M  CHG  1  24  -1
M  END
> <rmsd>
0.689662993

$$$$
ZINC35397508


 29 30  0  0  0  0  0  0  0  0999 V2000
   -3.5691   -2.5596    0.5587 C   0  0  0  0  0
   -2.9144   -2.3218   -1.7547 C   0  0  0  0  0
   -3.3970   -1.1885    0.7483 C   0  0  0  0  0
   -2.7423   -0.9506   -1.5652 C   0  0  0  0  0
    0.8683    0.4576   -0.6601 C   0  0  0  0  0
   -0.0602    2.4529   -1.5617 C   0  0  0  0  0
    1.8379    0.4949   -1.6560 C   0  0  0  0  0
   -0.1024    1.4514   -0.6051 C   0  0  0  0  0
   -3.3277   -3.1263   -0.6929 C   0  0  0  0  0
   -2.9837   -0.3839   -0.3136 C   0  0  0  0  0
    1.7932    1.5390   -2.5657 C   0  0  0  0  0
    2.8652   -0.5592   -1.7121 C   0  0  0  0  0
    5.6924    1.3870   -2.9487 C   0  0  0  0  0
    5.7177    3.8896   -2.7011 C   0  0  0  0  0
    1.3211    1.5714   -6.1823 C   0  0  0  0  0
    1.8123   -0.8915   -6.3144 C   0  0  0  0  0
    3.6639    2.7460   -3.6629 C   0  0  0  0  0
    2.9308    0.5150   -4.5195 C   0  0  0  0  0
    4.8449    2.6338   -2.6912 C   0  0  0  0  0
    1.6811    0.3164   -5.3858 C   0  0  0  0  0
    0.8658    2.5225   -2.5441 N   0  0  0  0  0
   -1.1092    1.4402    0.4034 N   0  0  0  0  0
    2.7546    1.5826   -3.5592 N   0  0  0  0  0
    2.6294   -1.6164   -2.4078 O   0  0  0  0  0
    3.9639   -0.3876   -1.0635 O   0  0  0  0  0
   -3.6008    1.7334    1.0510 O   0  0  0  0  0
   -2.9446    2.0066   -1.3562 O   0  0  0  0  0
   -3.4916   -4.4433   -0.8747 F   0  0  0  0  0
   -2.7640    1.3557   -0.0727 S   0  0  0  0  0
  1  9  1  0  0  0
  2  4  1  0  0  0
  3 10  1  0  0  0
  5  8  1  0  0  0
  6 21  1  0  0  0
  7 11  1  0  0  0
  7 12  1  0  0  0
  8 22  1  0  0  0
  9 28  1  0  0  0
 11 23  1  0  0  0
 12 24  1  0  0  0
 13 19  1  0  0  0
 14 19  1  0  0  0
 15 20  1  0  0  0
 16 20  1  0  0  0
 17 19  1  0  0  0
 17 23  1  0  0  0
 18 20  1  0  0  0
 18 23  1  0  0  0
 29 10  1  0  0  0
 29 22  1  0  0  0
  1  3  2  0  0  0
  2  9  2  0  0  0
  4 10  2  0  0  0
  5  7  2  0  0  0
  6  8  2  0  0  0
 11 21  2  0  0  0
 12 25  2  0  0  0
 29 26  2  0  0  0
 29 27  2  0  0  0
M  CHG  1  24  -1
M  END
> <rmsd>
0.510638177

$$$$
ZINC13000695


 30 32  0  0  0  0  0  0  0  0999 V2000
   -2.3483   -2.7778    0.0568 C   0  0  0  0  0
   -3.0010   -0.9890   -1.4301 C   0  0  0  0  0
   -3.6076   -2.7398    0.6554 C   0  0  0  0  0
   -4.2603   -0.9509   -0.8314 C   0  0  0  0  0
   -6.5717    4.1651   -2.4833 C   0  0  0  0  0
   -7.3202    4.0212   -0.1908 C   0  0  0  0  0
   -2.0449   -1.9024   -0.9859 C   0  0  0  0  0
   -4.5636   -1.8264    0.2113 C   0  0  0  0  0
   -7.6064    4.1685   -1.5480 C   0  0  0  0  0
   -5.2506    4.0142   -2.0616 C   0  0  0  0  0
   -5.9991    3.8703    0.2311 C   0  0  0  0  0
   -4.9644    3.8669   -0.7044 C   0  0  0  0  0
   -0.7428   -1.9423   -1.6055 C   0  0  0  0  0
    1.3456   -1.5345   -2.0315 C   0  0  0  0  0
   -0.3338    1.0388   -0.4134 C   0  0  0  0  0
   -3.0721    2.6409    0.4184 C   0  0  0  0  0
   -5.9100   -1.7856    0.8515 C   0  0  0  0  0
   -9.0187    4.3292   -1.9989 C   0  0  0  0  0
   -4.1637    4.0133   -3.0874 C   0  0  0  0  0
   -5.7236    3.7150    1.6918 C   0  0  0  0  0
    0.3376   -0.2766   -0.0817 C   0  0  0  0  0
   -1.5978    2.8806    0.6806 C   0  0  0  0  0
   -0.4003   -2.6766   -2.6398 N   0  0  0  0  0
    0.9284   -2.4171   -2.9109 N   0  0  0  0  0
    0.3259   -1.2075   -1.1900 N   0  0  0  0  0
   -3.6243    3.7140   -0.2760 N   0  0  0  0  0
   -0.8930    1.6202    0.7154 N   0  0  0  0  0
   -0.3706    1.5135   -1.5455 O   0  0  0  0  0
   -3.6429    1.6176    0.7822 O   0  0  0  0  0
    2.9118   -0.8892   -1.9386 S   0  0  0  0  0
  1  7  1  0  0  0
  2  4  1  0  0  0
  3  8  1  0  0  0
  5  9  1  0  0  0
  6 11  1  0  0  0
  7 13  1  0  0  0
 10 12  1  0  0  0
 12 26  1  0  0  0
 13 25  1  0  0  0
 14 24  1  0  0  0
 14 25  1  0  0  0
 15 27  1  0  0  0
 16 26  1  0  0  0
 17  8  1  0  0  0
 18  9  1  0  0  0
 19 10  1  0  0  0
 20 11  1  0  0  0
 21 15  1  0  0  0
 21 25  1  0  0  0
 22 16  1  0  0  0
 22 27  1  0  0  0
 23 24  1  0  0  0
  1  3  2  0  0  0
  2  7  2  0  0  0
  4  8  2  0  0  0
  5 10  2  0  0  0
  6  9  2  0  0  0
 11 12  2  0  0  0
 13 23  2  0  0  0
 14 30  2  0  0  0
 15 28  2  0  0  0
 16 29  2  0  0  0
M  CHG  1  30  -1
M  END
> <rmsd>
0.498990476

$$$$
ZINC12771140


 30 32  0  0  0  0  0  0  0  0999 V2000
   -3.6545   -2.7349    0.4734 C   0  0  0  0  0
   -2.3526   -2.7951   -0.0236 C   0  0  0  0  0
   -4.5806   -1.8642   -0.1010 C   0  0  0  0  0
   -2.9028   -1.1138   -1.6691 C   0  0  0  0  0
   -7.4177    4.8003   -0.0795 C   0  0  0  0  0
   -7.1174    4.1927    2.2394 C   0  0  0  0  0
   -1.9767   -1.9846   -1.0947 C   0  0  0  0  0
   -4.2048   -1.0535   -1.1721 C   0  0  0  0  0
   -7.9450    4.6129    1.1982 C   0  0  0  0  0
   -6.0629    4.5674   -0.3161 C   0  0  0  0  0
   -5.7625    3.9600    2.0028 C   0  0  0  0  0
   -5.2353    4.1474    0.7251 C   0  0  0  0  0
   -0.6301   -2.0466   -1.6077 C   0  0  0  0  0
    1.4816   -1.6384   -1.8967 C   0  0  0  0  0
   -0.3412    1.0106   -0.5852 C   0  0  0  0  0
   -3.1613    2.7195    0.6577 C   0  0  0  0  0
   -5.1958   -0.1232   -1.7858 C   0  0  0  0  0
   -9.3935    4.8614    1.4510 C   0  0  0  0  0
   -5.5275    4.7757   -1.6959 C   0  0  0  0  0
   -4.9006    3.5110    3.1385 C   0  0  0  0  0
    0.3136   -0.2713   -0.1171 C   0  0  0  0  0
   -1.7027    2.9017    0.2849 C   0  0  0  0  0
   -0.2015   -2.8413   -2.5623 N   0  0  0  0  0
    1.1420   -2.5816   -2.7462 N   0  0  0  0  0
    0.3966   -1.2718   -1.1598 N   0  0  0  0  0
   -3.8606    3.9113    0.4857 N   0  0  0  0  0
   -0.9918    1.6559    0.4565 N   0  0  0  0  0
   -0.2936    1.4107   -1.7452 O   0  0  0  0  0
   -3.6087    1.6434    1.0412 O   0  0  0  0  0
    3.0302   -0.9671   -1.7253 S   0  0  0  0  0
  1  2  1  0  0  0
  3  8  1  0  0  0
  4  7  1  0  0  0
  5  9  1  0  0  0
  6 11  1  0  0  0
  7 13  1  0  0  0
 10 12  1  0  0  0
 12 26  1  0  0  0
 13 25  1  0  0  0
 14 24  1  0  0  0
 14 25  1  0  0  0
 15 27  1  0  0  0
 16 26  1  0  0  0
 17  8  1  0  0  0
 18  9  1  0  0  0
 19 10  1  0  0  0
 20 11  1  0  0  0
 21 15  1  0  0  0
 21 25  1  0  0  0
 22 16  1  0  0  0
 22 27  1  0  0  0
 23 24  1  0  0  0
  1  3  2  0  0  0
  2  7  2  0  0  0
  4  8  2  0  0  0
  5 10  2  0  0  0
  6  9  2  0  0  0
 11 12  2  0  0  0
 13 23  2  0  0  0
 14 30  2  0  0  0
 15 28  2  0  0  0
 16 29  2  0  0  0
M  CHG  1  30  -1
M  END
> <rmsd>
0.539535105

$$$$
ZINC12771140


 30 32  0  0  0  0  0  0  0  0999 V2000
   -4.2598   -0.9501   -0.8315 C   0  0  0  0  0
   -3.0005   -0.9886   -1.4298 C   0  0  0  0  0
   -4.5638   -1.8256    0.2110 C   0  0  0  0  0
   -2.3488   -2.7782    0.0568 C   0  0  0  0  0
   -6.5726    4.1639   -2.4842 C   0  0  0  0  0
   -7.3209    4.0205   -0.1916 C   0  0  0  0  0
   -2.0450   -1.9027   -0.9858 C   0  0  0  0  0
   -3.6082   -2.7397    0.6551 C   0  0  0  0  0
   -7.6073    4.1675   -1.5488 C   0  0  0  0  0
   -5.2516    4.0133   -2.0626 C   0  0  0  0  0
   -5.9998    3.8699    0.2302 C   0  0  0  0  0
   -4.9652    3.8663   -0.7053 C   0  0  0  0  0
   -0.7430   -1.9426   -1.6054 C   0  0  0  0  0
    1.3453   -1.5347   -2.0317 C   0  0  0  0  0
   -0.3343    1.0388   -0.4141 C   0  0  0  0  0
   -3.0726    2.6408    0.4175 C   0  0  0  0  0
   -3.9340   -3.6751    1.7701 C   0  0  0  0  0
   -9.0197    4.3279   -1.9996 C   0  0  0  0  0
   -4.1647    4.0122   -3.0886 C   0  0  0  0  0
   -5.7240    3.7150    1.6910 C   0  0  0  0  0
    0.3374   -0.2764   -0.0821 C   0  0  0  0  0
   -1.5984    2.8808    0.6794 C   0  0  0  0  0
   -0.4005   -2.6772   -2.6396 N   0  0  0  0  0
    0.9280   -2.4176   -2.9109 N   0  0  0  0  0
    0.3257   -1.2075   -1.1902 N   0  0  0  0  0
   -3.6250    3.7137   -0.2771 N   0  0  0  0  0
   -0.8933    1.6204    0.7145 N   0  0  0  0  0
   -0.3712    1.5131   -1.5463 O   0  0  0  0  0
   -3.6433    1.6176    0.7816 O   0  0  0  0  0
    2.9114   -0.8893   -1.9391 S   0  0  0  0  0
  1  2  1  0  0  0
  3  8  1  0  0  0
  4  7  1  0  0  0
  5  9  1  0  0  0
  6 11  1  0  0  0
  7 13  1  0  0  0
 10 12  1  0  0  0
 12 26  1  0  0  0
 13 25  1  0  0  0
 14 24  1  0  0  0
 14 25  1  0  0  0
 15 27  1  0  0  0
 16 26  1  0  0  0
 17  8  1  0  0  0
 18  9  1  0  0  0
 19 10  1  0  0  0
 20 11  1  0  0  0
 21 15  1  0  0  0
 21 25  1  0  0  0
 22 16  1  0  0  0
 22 27  1  0  0  0
 23 24  1  0  0  0
  1  3  2  0  0  0
  2  7  2  0  0  0
  4  8  2  0  0  0
  5 10  2  0  0  0
  6  9  2  0  0  0
 11 12  2  0  0  0
 13 23  2  0  0  0
 14 30  2  0  0  0
 15 28  2  0  0  0
 16 29  2  0  0  0
M  CHG  1  30  -1
M  END
> <rmsd>
0.498929709

$$$$
ZINC13000695


 30 32  0  0  0  0  0  0  0  0999 V2000
   -2.3530   -2.7951   -0.0231 C   0  0  0  0  0
   -2.9033   -1.1153   -1.6700 C   0  0  0  0  0
   -3.6554   -2.7357    0.4726 C   0  0  0  0  0
   -4.2058   -1.0559   -1.1744 C   0  0  0  0  0
   -7.4179    4.8001   -0.0806 C   0  0  0  0  0
   -7.1173    4.1932    2.2384 C   0  0  0  0  0
   -1.9769   -1.9848   -1.0943 C   0  0  0  0  0
   -4.5818   -1.8662   -0.1029 C   0  0  0  0  0
   -7.9449    4.6130    1.1972 C   0  0  0  0  0
   -6.0630    4.5672   -0.3172 C   0  0  0  0  0
   -5.7624    3.9603    2.0020 C   0  0  0  0  0
   -5.2354    4.1474    0.7242 C   0  0  0  0  0
   -0.6301   -2.0469   -1.6075 C   0  0  0  0  0
    1.4816   -1.6389   -1.8967 C   0  0  0  0  0
   -0.3413    1.0106   -0.5856 C   0  0  0  0  0
   -3.1614    2.7197    0.6569 C   0  0  0  0  0
   -5.9744   -1.8025    0.4272 C   0  0  0  0  0
   -9.3935    4.8615    1.4500 C   0  0  0  0  0
   -5.5276    4.7752   -1.6970 C   0  0  0  0  0
   -4.9005    3.5116    3.1377 C   0  0  0  0  0
    0.3136   -0.2713   -0.1173 C   0  0  0  0  0
   -1.7027    2.9018    0.2841 C   0  0  0  0  0
   -0.2015   -2.8418   -2.5619 N   0  0  0  0  0
    1.1419   -2.5822   -2.7459 N   0  0  0  0  0
    0.3965   -1.2720   -1.1598 N   0  0  0  0  0
   -3.8607    3.9113    0.4847 N   0  0  0  0  0
   -0.9918    1.6561    0.4559 N   0  0  0  0  0
   -0.2937    1.4103   -1.7459 O   0  0  0  0  0
   -3.6087    1.6436    1.0407 O   0  0  0  0  0
    3.0302   -0.9674   -1.7255 S   0  0  0  0  0
  1  7  1  0  0  0
  2  4  1  0  0  0
  3  8  1  0  0  0
  5  9  1  0  0  0
  6 11  1  0  0  0
  7 13  1  0  0  0
 10 12  1  0  0  0
 12 26  1  0  0  0
 13 25  1  0  0  0
 14 24  1  0  0  0
 14 25  1  0  0  0
 15 27  1  0  0  0
 16 26  1  0  0  0
 17  8  1  0  0  0
 18  9  1  0  0  0
 19 10  1  0  0  0
 20 11  1  0  0  0
 21 15  1  0  0  0
 21 25  1  0  0  0
 22 16  1  0  0  0
 22 27  1  0  0  0
 23 24  1  0  0  0
  1  3  2  0  0  0
  2  7  2  0  0  0
  4  8  2  0  0  0
  5 10  2  0  0  0
  6  9  2  0  0  0
 11 12  2  0  0  0
 13 23  2  0  0  0
 14 30  2  0  0  0
 15 28  2  0  0  0
 16 29  2  0  0  0
M  CHG  1  30  -1
M  END
> <rmsd>
0.539622664

$$$$
ZINC12771140


 30 32  0  0  0  0  0  0  0  0999 V2000
   -3.4481   -2.2135    0.9559 C   0  0  0  0  0
   -2.1894   -2.2528    0.3562 C   0  0  0  0  0
   -4.5628   -1.8240    0.2130 C   0  0  0  0  0
   -3.1598   -1.5130   -1.7290 C   0  0  0  0  0
   -6.5720    4.1651   -2.4833 C   0  0  0  0  0
   -7.3205    4.0210   -0.1908 C   0  0  0  0  0
   -2.0452   -1.9025   -0.9862 C   0  0  0  0  0
   -4.4186   -1.4737   -1.1294 C   0  0  0  0  0
   -7.6068    4.1685   -1.5481 C   0  0  0  0  0
   -5.2511    4.0142   -2.0616 C   0  0  0  0  0
   -5.9996    3.8701    0.2310 C   0  0  0  0  0
   -4.9648    3.8668   -0.7043 C   0  0  0  0  0
   -0.7432   -1.9424   -1.6057 C   0  0  0  0  0
    1.3452   -1.5346   -2.0316 C   0  0  0  0  0
   -0.3343    1.0387   -0.4134 C   0  0  0  0  0
   -3.0725    2.6407    0.4183 C   0  0  0  0  0
   -5.6108   -1.0578   -1.9229 C   0  0  0  0  0
   -9.0191    4.3292   -1.9990 C   0  0  0  0  0
   -4.1641    4.0133   -3.0875 C   0  0  0  0  0
   -5.7240    3.7148    1.6918 C   0  0  0  0  0
    0.3372   -0.2767   -0.0818 C   0  0  0  0  0
   -1.5983    2.8804    0.6805 C   0  0  0  0  0
   -0.4007   -2.6767   -2.6400 N   0  0  0  0  0
    0.9280   -2.4172   -2.9111 N   0  0  0  0  0
    0.3255   -1.2075   -1.1902 N   0  0  0  0  0
   -3.6247    3.7139   -0.2760 N   0  0  0  0  0
   -0.8934    1.6199    0.7153 N   0  0  0  0  0
   -0.3710    1.5133   -1.5455 O   0  0  0  0  0
   -3.6434    1.6174    0.7821 O   0  0  0  0  0
    2.9114   -0.8893   -1.9386 S   0  0  0  0  0
  1  2  1  0  0  0
  3  8  1  0  0  0
  4  7  1  0  0  0
  5  9  1  0  0  0
  6 11  1  0  0  0
  7 13  1  0  0  0
 10 12  1  0  0  0
 12 26  1  0  0  0
 13 25  1  0  0  0
 14 24  1  0  0  0
 14 25  1  0  0  0
 15 27  1  0  0  0
 16 26  1  0  0  0
 17  8  1  0  0  0
 18  9  1  0  0  0
 19 10  1  0  0  0
 20 11  1  0  0  0
 21 15  1  0  0  0
 21 25  1  0  0  0
 22 16  1  0  0  0
 22 27  1  0  0  0
 23 24  1  0  0  0
  1  3  2  0  0  0
  2  7  2  0  0  0
  4  8  2  0  0  0
  5 10  2  0  0  0
  6  9  2  0  0  0
 11 12  2  0  0  0
 13 23  2  0  0  0
 14 30  2  0  0  0
 15 28  2  0  0  0
 16 29  2  0  0  0
M  CHG  1  30  -1
M  END
> <rmsd>
0.498768032

$$$$
ZINC35397610


 28 30  0  0  0  0  0  0  0  0999 V2000
   -3.3101   -2.5494    0.4823 C   0  0  0  0  0
   -2.9174   -3.1075   -0.7342 C   0  0  0  0  0
   -3.2431   -1.1688    0.6702 C   0  0  0  0  0
   -2.4578   -2.2852   -1.7628 C   0  0  0  0  0
    1.0093    0.7840   -0.3049 C   0  0  0  0  0
    0.0248    2.7296   -1.2547 C   0  0  0  0  0
    2.0656    0.9191   -1.1988 C   0  0  0  0  0
   -0.0346    1.7023   -0.3268 C   0  0  0  0  0
   -2.7835   -0.3464   -0.3585 C   0  0  0  0  0
   -2.3908   -0.9047   -1.5749 C   0  0  0  0  0
    2.0309    1.9814   -2.0878 C   0  0  0  0  0
    3.1702   -0.0550   -1.1736 C   0  0  0  0  0
    2.8113    4.5869   -5.0939 C   0  0  0  0  0
    4.0816    4.8887   -4.2961 C   0  0  0  0  0
    2.8820    3.3277   -5.9604 C   0  0  0  0  0
    4.0625    4.4133   -2.8435 C   0  0  0  0  0
    2.2591    2.0780   -5.3386 C   0  0  0  0  0
    4.2819    2.9131   -2.6615 C   0  0  0  0  0
    3.1154    1.4050   -4.2683 C   0  0  0  0  0
    1.0342    2.8934   -2.1389 N   0  0  0  0  0
    3.0903    2.1237   -2.9901 N   0  0  0  0  0
   -1.1310    1.5901    0.5764 N   0  0  0  0  0
    3.0838   -1.1074   -1.9097 O   0  0  0  0  0
    4.1843    0.1792   -0.4159 O   0  0  0  0  0
   -3.6888    1.6824    0.9795 O   0  0  0  0  0
   -2.8238    2.0677   -1.3449 O   0  0  0  0  0
   -2.7205    1.3975   -0.0629 S   0  0  0  0  0
   -1.8140    0.0683   -2.8800 Cl  0  0  0  0  0
  1  2  1  0  0  0
  3  9  1  0  0  0
  4 10  1  0  0  0
  5  8  1  0  0  0
  6 20  1  0  0  0
  7 11  1  0  0  0
  7 12  1  0  0  0
  8 22  1  0  0  0
 10 28  1  0  0  0
 11 21  1  0  0  0
 12 23  1  0  0  0
 13 14  1  0  0  0
 13 15  1  0  0  0
 14 16  1  0  0  0
 15 17  1  0  0  0
 16 18  1  0  0  0
 17 19  1  0  0  0
 18 21  1  0  0  0
 19 21  1  0  0  0
 27  9  1  0  0  0
 27 22  1  0  0  0
  1  3  2  0  0  0
  2  4  2  0  0  0
  5  7  2  0  0  0
  6  8  2  0  0  0
  9 10  2  0  0  0
 11 20  2  0  0  0
 12 24  2  0  0  0
 27 25  2  0  0  0
 27 26  2  0  0  0
M  CHG  1  23  -1
M  END
> <rmsd>
0.676054001

$$$$
ZINC35397610


 28 30  0  0  0  0  0  0  0  0999 V2000
   -3.5925   -2.5229    0.5874 C   0  0  0  0  0
   -3.3609   -3.1215   -0.6510 C   0  0  0  0  0
   -3.4033   -1.1499    0.7447 C   0  0  0  0  0
   -2.9401   -2.3471   -1.7321 C   0  0  0  0  0
    0.8729    0.4594   -0.6592 C   0  0  0  0  0
   -0.0469    2.4659   -1.5450 C   0  0  0  0  0
    1.8467    0.5039   -1.6507 C   0  0  0  0  0
   -0.0956    1.4552   -0.5984 C   0  0  0  0  0
   -2.9825   -0.3754   -0.3364 C   0  0  0  0  0
   -2.7509   -0.9741   -1.5748 C   0  0  0  0  0
    1.8083    1.5570   -2.5504 C   0  0  0  0  0
    2.8715   -0.5523   -1.7131 C   0  0  0  0  0
    2.4947    4.0652   -5.6604 C   0  0  0  0  0
    3.8543    4.2757   -4.9910 C   0  0  0  0  0
    2.3868    2.7960   -6.5083 C   0  0  0  0  0
    3.9375    3.8174   -3.5351 C   0  0  0  0  0
    1.7328    1.6042   -5.8095 C   0  0  0  0  0
    4.0586    2.3066   -3.3492 C   0  0  0  0  0
    2.6335    0.8775   -4.8132 C   0  0  0  0  0
    0.8833    2.5426   -2.5230 N   0  0  0  0  0
    2.7847    1.6084   -3.5507 N   0  0  0  0  0
   -1.1064    1.4368    0.4058 N   0  0  0  0  0
    2.6358   -1.6020   -2.4199 O   0  0  0  0  0
    3.9679   -0.3898   -1.0583 O   0  0  0  0  0
   -3.5998    1.7301    1.0462 O   0  0  0  0  0
   -2.9331    2.0250   -1.3555 O   0  0  0  0  0
   -2.7595    1.3612   -0.0777 S   0  0  0  0  0
   -2.2287   -0.0612   -2.9446 Cl  0  0  0  0  0
  1  2  1  0  0  0
  3  9  1  0  0  0
  4 10  1  0  0  0
  5  8  1  0  0  0
  6 20  1  0  0  0
  7 11  1  0  0  0
  7 12  1  0  0  0
  8 22  1  0  0  0
 10 28  1  0  0  0
 11 21  1  0  0  0
 12 23  1  0  0  0
 13 14  1  0  0  0
 13 15  1  0  0  0
 14 16  1  0  0  0
 15 17  1  0  0  0
 16 18  1  0  0  0
 17 19  1  0  0  0
 18 21  1  0  0  0
 19 21  1  0  0  0
 27  9  1  0  0  0
 27 22  1  0  0  0
  1  3  2  0  0  0
  2  4  2  0  0  0
  5  7  2  0  0  0
  6  8  2  0  0  0
  9 10  2  0  0  0
 11 20  2  0  0  0
 12 24  2  0  0  0
 27 25  2  0  0  0
 27 26  2  0  0  0
M  CHG  1  23  -1
M  END
> <rmsd>
0.499347866

$$$$
ZINC35299856


 29 31  0  0  0  0  0  0  0  0999 V2000
   -2.9829   -2.5407   -1.0791 C   0  0  0  0  0
   -2.3700   -1.2650   -1.0723 C   0  0  0  0  0
   -4.0683   -2.4475   -0.2394 C   0  0  0  0  0
   -3.1247   -0.4831   -0.2291 C   0  0  0  0  0
    3.1618   -0.0606    1.9179 C   0  0  0  0  0
    3.8332   -0.1205    0.7462 C   0  0  0  0  0
    1.2244    1.8084   -1.1625 C   0  0  0  0  0
   -2.9877    0.9395    0.1843 C   0  0  0  0  0
   -1.8462    1.7514   -0.3689 C   0  0  0  0  0
    3.0842   -0.6965   -1.5022 C   0  0  0  0  0
    7.4473   -0.3127    0.1870 C   0  0  0  0  0
    3.3600    0.4717   -0.5759 C   0  0  0  0  0
    0.5074    2.3698    0.0965 C   0  0  0  0  0
    1.7990    1.9751    0.8403 C   0  0  0  0  0
   -4.4861    3.3247    2.1836 C   0  0  0  0  0
    5.1853   -0.7896    0.7000 C   0  0  0  0  0
   -3.8316    1.4762    1.0131 N   0  0  0  0  0
    2.1740    1.2639   -0.3713 N   0  0  0  0  0
    8.2974    0.6821   -0.2283 N   0  0  0  0  0
   -0.7348    1.6711    0.4230 N   0  0  0  0  0
    2.2135   -1.5142   -1.0941 O   0  0  0  0  0
    1.0264    1.7881   -2.3545 O   0  0  0  0  0
   -2.0242    2.3602   -1.4116 O   0  0  0  0  0
    3.7641   -0.7005   -2.5666 O   0  0  0  0  0
    7.7981   -1.4603    0.4408 O   0  0  0  0  0
   -4.1620   -1.1964    0.2827 O   0  0  0  0  0
    6.1565    0.1458    0.2805 O   0  0  0  0  0
   -3.5210    2.8178    1.2749 O   0  0  0  0  0
    1.6283    0.7311    2.1475 S   0  0  0  0  0
  1  2  1  0  0  0
  3 26  1  0  0  0
  4  8  1  0  0  0
  4 26  1  0  0  0
  5 29  1  0  0  0
  7 18  1  0  0  0
  8  9  1  0  0  0
  9 20  1  0  0  0
 10 21  1  0  0  0
 11 19  1  0  0  0
 11 27  1  0  0  0
 12  6  1  0  0  0
 12 10  1  0  0  0
 12 18  1  0  0  0
 13  7  1  0  0  0
 13 14  1  0  0  0
 13 20  1  0  0  0
 14 18  1  0  0  0
 14 29  1  0  0  0
 15 28  1  0  0  0
 16  6  1  0  0  0
 16 27  1  0  0  0
 17 28  1  0  0  0
  1  3  2  0  0  0
  2  4  2  0  0  0
  5  6  2  0  0  0
  7 22  2  0  0  0
  8 17  2  0  0  0
  9 23  2  0  0  0
 10 24  2  0  0  0
 11 25  2  0  0  0
M  CHG  1  21  -1
M  END
> <rmsd>
0.415651083

$$$$
ZINC71789555


 29 31  0  0  0  0  0  0  0  0999 V2000
   -2.3046   -1.2688   -0.9658 C   0  0  0  0  0
   -2.8634   -2.5252   -0.9984 C   0  0  0  0  0
   -4.1795   -1.3096    0.2424 C   0  0  0  0  0
   -3.1592   -0.4793   -0.1598 C   0  0  0  0  0
    3.2671    0.4360   -0.1123 C   0  0  0  0  0
    3.8133   -0.0289    1.0365 C   0  0  0  0  0
    1.2560    1.7355   -0.9536 C   0  0  0  0  0
   -3.0275    0.9564    0.2069 C   0  0  0  0  0
    3.8101   -0.0325   -1.4572 C   0  0  0  0  0
   -1.8493    1.7358   -0.3155 C   0  0  0  0  0
    7.2350   -0.8836    2.0232 C   0  0  0  0  0
    3.2251    0.2478    2.4182 C   0  0  0  0  0
    0.4839    2.3486    0.2495 C   0  0  0  0  0
    1.7289    1.9703    1.0810 C   0  0  0  0  0
   -4.6002    3.4301    2.0343 C   0  0  0  0  0
    5.0529   -0.8874    1.1034 C   0  0  0  0  0
   -3.9071    1.5323    0.9697 N   0  0  0  0  0
    2.1934    1.2673   -0.1012 N   0  0  0  0  0
    8.1103   -0.1464    2.7816 N   0  0  0  0  0
   -0.7816    1.6749    0.5361 N   0  0  0  0  0
    3.2532   -1.0628   -1.9187 O   0  0  0  0  0
    1.0796    1.6276   -2.1445 O   0  0  0  0  0
    4.7414    0.6746   -1.9231 O   0  0  0  0  0
   -1.9657    2.3065   -1.3881 O   0  0  0  0  0
    7.4905   -1.9850    1.5477 O   0  0  0  0  0
   -4.0066   -2.5584   -0.2646 O   0  0  0  0  0
    6.0393   -0.2267    1.8680 O   0  0  0  0  0
   -3.5949    2.8797    1.1972 O   0  0  0  0  0
    1.4754    0.7671    2.4055 S   0  0  0  0  0
  1  4  1  0  0  0
  2 26  1  0  0  0
  3 26  1  0  0  0
  4  8  1  0  0  0
  5  9  1  0  0  0
  5 18  1  0  0  0
  7 18  1  0  0  0
  8 10  1  0  0  0
  9 21  1  0  0  0
 10 20  1  0  0  0
 11 19  1  0  0  0
 11 27  1  0  0  0
 12  6  1  0  0  0
 12 29  1  0  0  0
 13  7  1  0  0  0
 13 14  1  0  0  0
 13 20  1  0  0  0
 14 18  1  0  0  0
 14 29  1  0  0  0
 15 28  1  0  0  0
 16  6  1  0  0  0
 16 27  1  0  0  0
 17 28  1  0  0  0
  1  2  2  0  0  0
  3  4  2  0  0  0
  5  6  2  0  0  0
  7 22  2  0  0  0
  8 17  2  0  0  0
  9 23  2  0  0  0
 10 24  2  0  0  0
 11 25  2  0  0  0
M  CHG  1  21  -1
M  END
> <rmsd>
0.361308992

$$$$
ZINC71789555


 29 31  0  0  0  0  0  0  0  0999 V2000
   -2.6373   -1.3734   -0.8735 C   0  0  0  0  0
   -3.3076   -2.5738   -0.8345 C   0  0  0  0  0
   -4.4611   -1.1964    0.3988 C   0  0  0  0  0
   -3.3863   -0.4788   -0.0724 C   0  0  0  0  0
    3.0934   -0.1528   -0.2834 C   0  0  0  0  0
    3.6388   -0.6212    0.8643 C   0  0  0  0  0
    1.1767    1.2916   -1.1087 C   0  0  0  0  0
   -3.1123    0.9519    0.2294 C   0  0  0  0  0
    3.5407   -0.7203   -1.6254 C   0  0  0  0  0
   -1.8896    1.5999   -0.3651 C   0  0  0  0  0
    7.0048   -1.7461    1.7679 C   0  0  0  0  0
    3.1306   -0.2390    2.2526 C   0  0  0  0  0
    0.5090    2.0184    0.0935 C   0  0  0  0  0
    1.7456    1.5603    0.8969 C   0  0  0  0  0
   -4.3860    3.6272    2.0049 C   0  0  0  0  0
    4.7979   -1.5860    0.9245 C   0  0  0  0  0
   -3.9071    1.6346    0.9972 N   0  0  0  0  0
    2.0999    0.7729   -0.2702 N   0  0  0  0  0
    7.9710   -1.0632    2.4645 N   0  0  0  0  0
   -0.8001    1.4745    0.4512 N   0  0  0  0  0
    2.8764   -1.7123   -2.0242 O   0  0  0  0  0
    0.9463    1.1546   -2.2873 O   0  0  0  0  0
    4.5134   -0.1195   -2.1521 O   0  0  0  0  0
   -1.9948    2.1371   -1.4560 O   0  0  0  0  0
    7.1422   -2.8836    1.3302 O   0  0  0  0  0
   -4.4204   -2.4744   -0.0612 O   0  0  0  0  0
    5.8680   -0.9892    1.6265 O   0  0  0  0  0
   -3.4667    2.9556    1.1575 O   0  0  0  0  0
    1.4355    0.4370    2.2783 S   0  0  0  0  0
  1  4  1  0  0  0
  2 26  1  0  0  0
  3 26  1  0  0  0
  4  8  1  0  0  0
  5  9  1  0  0  0
  5 18  1  0  0  0
  7 18  1  0  0  0
  8 10  1  0  0  0
  9 21  1  0  0  0
 10 20  1  0  0  0
 11 19  1  0  0  0
 11 27  1  0  0  0
 12  6  1  0  0  0
 12 29  1  0  0  0
 13  7  1  0  0  0
 13 14  1  0  0  0
 13 20  1  0  0  0
 14 18  1  0  0  0
 14 29  1  0  0  0
 15 28  1  0  0  0
 16  6  1  0  0  0
 16 27  1  0  0  0
 17 28  1  0  0  0
  1  2  2  0  0  0
  3  4  2  0  0  0
  5  6  2  0  0  0
  7 22  2  0  0  0
  8 17  2  0  0  0
  9 23  2  0  0  0
 10 24  2  0  0  0
 11 25  2  0  0  0
M  CHG  1  21  -1
M  END
> <rmsd>
0.0639182776

$$$$
ZINC03871978


 29 31  0  0  0  0  0  0  0  0999 V2000
   -2.9712   -2.5713   -0.9615 C   0  0  0  0  0
   -2.3483   -1.3004   -0.9588 C   0  0  0  0  0
   -4.1011   -2.4446   -0.1875 C   0  0  0  0  0
   -3.1422   -0.4875   -0.1836 C   0  0  0  0  0
    3.2807    0.4448   -0.1045 C   0  0  0  0  0
    3.8238   -0.0265    1.0432 C   0  0  0  0  0
    1.2695    1.7449   -0.9446 C   0  0  0  0  0
   -3.0159    0.9460    0.1936 C   0  0  0  0  0
    3.8286   -0.0144   -1.4507 C   0  0  0  0  0
   -1.8380    1.7324   -0.3187 C   0  0  0  0  0
    7.2424   -0.8902    2.0320 C   0  0  0  0  0
    3.2295    0.2394    2.4245 C   0  0  0  0  0
    0.4912    2.3479    0.2596 C   0  0  0  0  0
    1.7340    1.9671    1.0933 C   0  0  0  0  0
   -4.6028    3.4024    2.0320 C   0  0  0  0  0
    5.0621   -0.8864    1.1080 C   0  0  0  0  0
   -3.9002    1.5141    0.9570 N   0  0  0  0  0
    2.2048    1.2733   -0.0918 N   0  0  0  0  0
    8.1171   -0.1579    2.7961 N   0  0  0  0  0
   -0.7735    1.6685    0.5367 N   0  0  0  0  0
    3.2746   -1.0424   -1.9204 O   0  0  0  0  0
    1.0977    1.6448   -2.1369 O   0  0  0  0  0
    4.7603    0.6970   -1.9090 O   0  0  0  0  0
   -1.9518    2.3101   -1.3877 O   0  0  0  0  0
    7.4976   -1.9892    1.5512 O   0  0  0  0  0
   -4.2127   -1.1773    0.2903 O   0  0  0  0  0
    6.0479   -0.2310    1.8781 O   0  0  0  0  0
   -3.5927    2.8608    1.1950 O   0  0  0  0  0
    1.4786    0.7543    2.4087 S   0  0  0  0  0
  1  2  1  0  0  0
  3 26  1  0  0  0
  4  8  1  0  0  0
  4 26  1  0  0  0
  5  9  1  0  0  0
  5 18  1  0  0  0
  7 18  1  0  0  0
  8 10  1  0  0  0
  9 21  1  0  0  0
 10 20  1  0  0  0
 11 19  1  0  0  0
 11 27  1  0  0  0
 12  6  1  0  0  0
 12 29  1  0  0  0
 13  7  1  0  0  0
 13 14  1  0  0  0
 13 20  1  0  0  0
 14 18  1  0  0  0
 14 29  1  0  0  0
 15 28  1  0  0  0
 16  6  1  0  0  0
 16 27  1  0  0  0
 17 28  1  0  0  0
  1  3  2  0  0  0
  2  4  2  0  0  0
  5  6  2  0  0  0
  7 22  2  0  0  0
  8 17  2  0  0  0
  9 23  2  0  0  0
 10 24  2  0  0  0
 11 25  2  0  0  0
M  CHG  1  21  -1
M  END
> <rmsd>
0.324136227

$$$$
ZINC03871978


 29 31  0  0  0  0  0  0  0  0999 V2000
   -3.4180   -2.6086   -0.7924 C   0  0  0  0  0
   -2.6838   -1.4008   -0.8644 C   0  0  0  0  0
   -4.5013   -2.3496    0.0147 C   0  0  0  0  0
   -3.3709   -0.4896   -0.0965 C   0  0  0  0  0
    3.1080   -0.1456   -0.2809 C   0  0  0  0  0
    3.6504   -0.6202    0.8658 C   0  0  0  0  0
    1.1909    1.2996   -1.1036 C   0  0  0  0  0
   -3.1019    0.9398    0.2160 C   0  0  0  0  0
    3.5601   -0.7042   -1.6251 C   0  0  0  0  0
   -1.8787    1.5951   -0.3695 C   0  0  0  0  0
    7.0132   -1.7540    1.7697 C   0  0  0  0  0
    3.1362   -0.2483    2.2547 C   0  0  0  0  0
    0.5170    2.0169    0.1008 C   0  0  0  0  0
    1.7518    1.5565    0.9058 C   0  0  0  0  0
   -4.3895    3.5995    2.0047 C   0  0  0  0  0
    4.8081   -1.5865    0.9231 C   0  0  0  0  0
   -3.9014    1.6151    0.9854 N   0  0  0  0  0
    2.1122    0.7776   -0.2652 N   0  0  0  0  0
    7.9790   -1.0759    2.4715 N   0  0  0  0  0
   -0.7921    1.4670    0.4500 N   0  0  0  0  0
    2.8982   -1.6945   -2.0319 O   0  0  0  0  0
    0.9649    1.1700   -2.2839 O   0  0  0  0  0
    4.5336   -0.0989   -2.1449 O   0  0  0  0  0
   -1.9813    2.1394   -1.4571 O   0  0  0  0  0
    7.1499   -2.8893    1.3264 O   0  0  0  0  0
   -4.4800   -1.0600    0.4429 O   0  0  0  0  0
    5.8777   -0.9948    1.6303 O   0  0  0  0  0
   -3.4651    2.9363    1.1562 O   0  0  0  0  0
    1.4393    0.4234    2.2786 S   0  0  0  0  0
  1  2  1  0  0  0
  3 26  1  0  0  0
  4  8  1  0  0  0
  4 26  1  0  0  0
  5  9  1  0  0  0
  5 18  1  0  0  0
  7 18  1  0  0  0
  8 10  1  0  0  0
  9 21  1  0  0  0
 10 20  1  0  0  0
 11 19  1  0  0  0
 11 27  1  0  0  0
 12  6  1  0  0  0
 12 29  1  0  0  0
 13  7  1  0  0  0
 13 14  1  0  0  0
 13 20  1  0  0  0
 14 18  1  0  0  0
 14 29  1  0  0  0
 15 28  1  0  0  0
 16  6  1  0  0  0
 16 27  1  0  0  0
 17 28  1  0  0  0
  1  3  2  0  0  0
  2  4  2  0  0  0
  5  6  2  0  0  0
  7 22  2  0  0  0
  8 17  2  0  0  0
  9 23  2  0  0  0
 10 24  2  0  0  0
 11 25  2  0  0  0
M  CHG  1  21  -1
M  END
> <rmsd>
0.0313537382

$$$$
ZINC04574563


 29 31  0  0  0  0  0  0  0  0999 V2000
   -3.3744   -2.5589   -0.8853 C   0  0  0  0  0
   -2.6785   -1.3273   -0.9322 C   0  0  0  0  0
   -4.4463   -2.3603   -0.0464 C   0  0  0  0  0
   -3.3749   -0.4640   -0.1187 C   0  0  0  0  0
    3.5123    0.8545   -0.5597 C   0  0  0  0  0
    4.4317    1.0179    0.4208 C   0  0  0  0  0
    1.1309    1.4879   -1.1479 C   0  0  0  0  0
   -3.1416    0.9618    0.2363 C   0  0  0  0  0
    3.9252    0.2749   -1.9072 C   0  0  0  0  0
   -1.9524    1.6736   -0.3530 C   0  0  0  0  0
    7.3534   -0.9326    1.4554 C   0  0  0  0  0
    4.1340    1.7212    1.7450 C   0  0  0  0  0
    0.4397    2.1528    0.0791 C   0  0  0  0  0
    1.6408    1.6122    0.8860 C   0  0  0  0  0
   -4.4672    3.5195    2.1424 C   0  0  0  0  0
    5.8563    0.5258    0.3424 C   0  0  0  0  0
   -3.9433    1.5862    1.0456 N   0  0  0  0  0
    2.2315    1.2760   -0.3956 N   0  0  0  0  0
    7.4631   -1.8053    2.5097 N   0  0  0  0  0
   -0.8427    1.5522    0.4374 N   0  0  0  0  0
    3.8445   -0.9788   -1.9872 O   0  0  0  0  0
    0.8595    1.2953   -2.3097 O   0  0  0  0  0
    4.2908    1.1288   -2.7570 O   0  0  0  0  0
   -2.0961    2.2505   -1.4189 O   0  0  0  0  0
    8.2639   -0.6726    0.6759 O   0  0  0  0  0
   -4.4539   -1.0859    0.4250 O   0  0  0  0  0
    6.0934   -0.3911    1.3899 O   0  0  0  0  0
   -3.5431    2.9136    1.2519 O   0  0  0  0  0
    2.6893    2.8367    1.6981 S   0  0  0  0  0
  1  2  1  0  0  0
  3 26  1  0  0  0
  4  8  1  0  0  0
  4 26  1  0  0  0
  5  9  1  0  0  0
  5 18  1  0  0  0
  7 18  1  0  0  0
  8 10  1  0  0  0
  9 21  1  0  0  0
 10 20  1  0  0  0
 11 19  1  0  0  0
 11 27  1  0  0  0
 12  6  1  0  0  0
 12 29  1  0  0  0
 13  7  1  0  0  0
 13 14  1  0  0  0
 13 20  1  0  0  0
 14 18  1  0  0  0
 14 29  1  0  0  0
 15 28  1  0  0  0
 16  6  1  0  0  0
 16 27  1  0  0  0
 17 28  1  0  0  0
  1  3  2  0  0  0
  2  4  2  0  0  0
  5  6  2  0  0  0
  7 22  2  0  0  0
  8 17  2  0  0  0
  9 23  2  0  0  0
 10 24  2  0  0  0
 11 25  2  0  0  0
M  CHG  1  21  -1
M  END
> <rmsd>
0.154056624

$$$$
ZINC04574563


 29 31  0  0  0  0  0  0  0  0999 V2000
   -3.6867   -2.6273   -0.6318 C   0  0  0  0  0
   -2.8818   -1.4697   -0.7547 C   0  0  0  0  0
   -4.7492   -2.2709    0.1658 C   0  0  0  0  0
   -3.5100   -0.4883   -0.0237 C   0  0  0  0  0
    3.4742    0.1755   -0.4073 C   0  0  0  0  0
    4.3891    0.3308    0.5787 C   0  0  0  0  0
    1.1692    0.9713   -1.0944 C   0  0  0  0  0
   -3.1545    0.9340    0.2291 C   0  0  0  0  0
    3.8542   -0.5397   -1.6982 C   0  0  0  0  0
   -1.8968    1.4902   -0.3848 C   0  0  0  0  0
    7.1063   -1.7870    1.8211 C   0  0  0  0  0
    4.1355    1.1568    1.8397 C   0  0  0  0  0
    0.5218    1.7865    0.0639 C   0  0  0  0  0
    1.6564    1.2045    0.9355 C   0  0  0  0  0
   -4.2733    3.7373    1.9090 C   0  0  0  0  0
    5.7645   -0.2905    0.5692 C   0  0  0  0  0
   -3.9090    1.6871    0.9715 N   0  0  0  0  0
    2.2343    0.7204   -0.3039 N   0  0  0  0  0
    7.1202   -2.5831    2.9397 N   0  0  0  0  0
   -0.8151    1.3314    0.4371 N   0  0  0  0  0
    3.6618   -1.7837   -1.6863 O   0  0  0  0  0
    0.8997    0.7154   -2.2443 O   0  0  0  0  0
    4.3086    0.2110   -2.6008 O   0  0  0  0  0
   -1.9711    1.9947   -1.4937 O   0  0  0  0  0
    8.0486   -1.6692    1.0450 O   0  0  0  0  0
   -4.6490   -0.9686    0.5405 O   0  0  0  0  0
    5.9015   -1.1423    1.6872 O   0  0  0  0  0
   -3.3939    2.9855    1.0871 O   0  0  0  0  0
    2.7984    2.3893    1.6774 S   0  0  0  0  0
  1  2  1  0  0  0
  3 26  1  0  0  0
  4  8  1  0  0  0
  4 26  1  0  0  0
  5  9  1  0  0  0
  5 18  1  0  0  0
  7 18  1  0  0  0
  8 10  1  0  0  0
  9 21  1  0  0  0
 10 20  1  0  0  0
 11 19  1  0  0  0
 11 27  1  0  0  0
 12  6  1  0  0  0
 12 29  1  0  0  0
 13  7  1  0  0  0
 13 14  1  0  0  0
 13 20  1  0  0  0
 14 18  1  0  0  0
 14 29  1  0  0  0
 15 28  1  0  0  0
 16  6  1  0  0  0
 16 27  1  0  0  0
 17 28  1  0  0  0
  1  3  2  0  0  0
  2  4  2  0  0  0
  5  6  2  0  0  0
  7 22  2  0  0  0
  8 17  2  0  0  0
  9 23  2  0  0  0
 10 24  2  0  0  0
 11 25  2  0  0  0
M  CHG  1  21  -1
M  END
> <rmsd>
0.218890339

$$$$
ZINC71789555


 29 31  0  0  0  0  0  0  0  0999 V2000
   -2.6378   -1.3732   -0.8735 C   0  0  0  0  0
   -3.3081   -2.5736   -0.8346 C   0  0  0  0  0
   -4.4617   -1.1962    0.3989 C   0  0  0  0  0
   -3.3868   -0.4786   -0.0723 C   0  0  0  0  0
    3.0929   -0.1528   -0.2831 C   0  0  0  0  0
    3.6383   -0.6212    0.8646 C   0  0  0  0  0
    1.1763    1.2917   -1.1083 C   0  0  0  0  0
   -3.1128    0.9521    0.2296 C   0  0  0  0  0
    3.5402   -0.7202   -1.6251 C   0  0  0  0  0
   -1.8900    1.6001   -0.3648 C   0  0  0  0  0
    5.3413   -3.7464    1.7276 C   0  0  0  0  0
    3.1300   -0.2392    2.2530 C   0  0  0  0  0
    0.5085    2.0185    0.0939 C   0  0  0  0  0
    1.7451    1.5602    0.8973 C   0  0  0  0  0
   -4.3865    3.6273    2.0053 C   0  0  0  0  0
    4.7973   -1.5861    0.9247 C   0  0  0  0  0
   -3.9076    1.6348    0.9975 N   0  0  0  0  0
    2.0994    0.7729   -0.2698 N   0  0  0  0  0
    4.8329   -4.8373    2.3882 N   0  0  0  0  0
   -0.8006    1.4746    0.4516 N   0  0  0  0  0
    2.8759   -1.7121   -2.0240 O   0  0  0  0  0
    0.9459    1.1548   -2.2870 O   0  0  0  0  0
    4.5130   -0.1194   -2.1518 O   0  0  0  0  0
   -1.9952    2.1374   -1.4556 O   0  0  0  0  0
    6.4933   -3.6636    1.3147 O   0  0  0  0  0
   -4.4210   -2.4741   -0.0613 O   0  0  0  0  0
    4.3924   -2.7636    1.5909 O   0  0  0  0  0
   -3.4672    2.9558    1.1579 O   0  0  0  0  0
    1.4349    0.4369    2.2786 S   0  0  0  0  0
  1  4  1  0  0  0
  2 26  1  0  0  0
  3 26  1  0  0  0
  4  8  1  0  0  0
  5  9  1  0  0  0
  5 18  1  0  0  0
  7 18  1  0  0  0
  8 10  1  0  0  0
  9 21  1  0  0  0
 10 20  1  0  0  0
 11 19  1  0  0  0
 11 27  1  0  0  0
 12  6  1  0  0  0
 12 29  1  0  0  0
 13  7  1  0  0  0
 13 14  1  0  0  0
 13 20  1  0  0  0
 14 18  1  0  0  0
 14 29  1  0  0  0
 15 28  1  0  0  0
 16  6  1  0  0  0
 16 27  1  0  0  0
 17 28  1  0  0  0
  1  2  2  0  0  0
  3  4  2  0  0  0
  5  6  2  0  0  0
  7 22  2  0  0  0
  8 17  2  0  0  0
  9 23  2  0  0  0
 10 24  2  0  0  0
 11 25  2  0  0  0
M  CHG  1  21  -1
M  END
> <rmsd>
0.0640329868

$$$$
ZINC71789555


 29 31  0  0  0  0  0  0  0  0999 V2000
   -2.3051   -1.2686   -0.9657 C   0  0  0  0  0
   -2.8640   -2.5250   -0.9984 C   0  0  0  0  0
   -4.1801   -1.3095    0.2424 C   0  0  0  0  0
   -3.1598   -0.4792   -0.1597 C   0  0  0  0  0
    3.2666    0.4359   -0.1119 C   0  0  0  0  0
    3.8128   -0.0291    1.0368 C   0  0  0  0  0
    1.2556    1.7356   -0.9532 C   0  0  0  0  0
   -3.0280    0.9565    0.2071 C   0  0  0  0  0
    3.8096   -0.0325   -1.4568 C   0  0  0  0  0
   -1.8498    1.7359   -0.3152 C   0  0  0  0  0
    5.7634   -3.0218    1.8431 C   0  0  0  0  0
    3.2245    0.2476    2.4185 C   0  0  0  0  0
    0.4834    2.3487    0.2499 C   0  0  0  0  0
    1.7284    1.9702    1.0815 C   0  0  0  0  0
   -4.6007    3.4301    2.0346 C   0  0  0  0  0
    5.0523   -0.8876    1.1038 C   0  0  0  0  0
   -3.9076    1.5324    0.9699 N   0  0  0  0  0
    2.1929    1.2673   -0.1008 N   0  0  0  0  0
    5.3343   -4.1806    2.4416 N   0  0  0  0  0
   -0.7821    1.6749    0.5365 N   0  0  0  0  0
    3.2527   -1.0627   -1.9184 O   0  0  0  0  0
    1.0792    1.6278   -2.1441 O   0  0  0  0  0
    4.7409    0.6747   -1.9227 O   0  0  0  0  0
   -1.9661    2.3067   -1.3878 O   0  0  0  0  0
    6.9164   -2.8187    1.4777 O   0  0  0  0  0
   -4.0072   -2.5583   -0.2647 O   0  0  0  0  0
    4.7339   -2.1234    1.7083 O   0  0  0  0  0
   -3.5954    2.8798    1.1975 O   0  0  0  0  0
    1.4748    0.7669    2.4059 S   0  0  0  0  0
  1  4  1  0  0  0
  2 26  1  0  0  0
  3 26  1  0  0  0
  4  8  1  0  0  0
  5  9  1  0  0  0
  5 18  1  0  0  0
  7 18  1  0  0  0
  8 10  1  0  0  0
  9 21  1  0  0  0
 10 20  1  0  0  0
 11 19  1  0  0  0
 11 27  1  0  0  0
 12  6  1  0  0  0
 12 29  1  0  0  0
 13  7  1  0  0  0
 13 14  1  0  0  0
 13 20  1  0  0  0
 14 18  1  0  0  0
 14 29  1  0  0  0
 15 28  1  0  0  0
 16  6  1  0  0  0
 16 27  1  0  0  0
 17 28  1  0  0  0
  1  2  2  0  0  0
  3  4  2  0  0  0
  5  6  2  0  0  0
  7 22  2  0  0  0
  8 17  2  0  0  0
  9 23  2  0  0  0
 10 24  2  0  0  0
 11 25  2  0  0  0
M  CHG  1  21  -1
M  END
> <rmsd>
0.361316741

$$$$
ZINC03871978


 29 31  0  0  0  0  0  0  0  0999 V2000
   -2.9711   -2.5715   -0.9612 C   0  0  0  0  0
   -2.3482   -1.3006   -0.9586 C   0  0  0  0  0
   -4.1010   -2.4447   -0.1871 C   0  0  0  0  0
   -3.1421   -0.4877   -0.1834 C   0  0  0  0  0
    3.2808    0.4449   -0.1046 C   0  0  0  0  0
    3.8239   -0.0263    1.0431 C   0  0  0  0  0
    1.2695    1.7448   -0.9448 C   0  0  0  0  0
   -3.0159    0.9459    0.1937 C   0  0  0  0  0
    3.8286   -0.0144   -1.4508 C   0  0  0  0  0
   -1.8380    1.7323   -0.3188 C   0  0  0  0  0
    5.7703   -3.0249    1.8376 C   0  0  0  0  0
    3.2297    0.2396    2.4244 C   0  0  0  0  0
    0.4912    2.3479    0.2594 C   0  0  0  0  0
    1.7341    1.9672    1.0931 C   0  0  0  0  0
   -4.6028    3.4024    2.0319 C   0  0  0  0  0
    5.0623   -0.8862    1.1080 C   0  0  0  0  0
   -3.9001    1.5140    0.9570 N   0  0  0  0  0
    2.2048    1.2734   -0.0920 N   0  0  0  0  0
    5.3390   -4.1864    2.4292 N   0  0  0  0  0
   -0.7735    1.6685    0.5366 N   0  0  0  0  0
    3.2746   -1.0425   -1.9204 O   0  0  0  0  0
    1.0977    1.6446   -2.1370 O   0  0  0  0  0
    4.7603    0.6970   -1.9092 O   0  0  0  0  0
   -1.9518    2.3099   -1.3878 O   0  0  0  0  0
    6.9241   -2.8209    1.4754 O   0  0  0  0  0
   -4.2126   -1.1774    0.2906 O   0  0  0  0  0
    4.7417   -2.1251    1.7056 O   0  0  0  0  0
   -3.5927    2.8608    1.1949 O   0  0  0  0  0
    1.4787    0.7545    2.4086 S   0  0  0  0  0
  1  2  1  0  0  0
  3 26  1  0  0  0
  4  8  1  0  0  0
  4 26  1  0  0  0
  5  9  1  0  0  0
  5 18  1  0  0  0
  7 18  1  0  0  0
  8 10  1  0  0  0
  9 21  1  0  0  0
 10 20  1  0  0  0
 11 19  1  0  0  0
 11 27  1  0  0  0
 12  6  1  0  0  0
 12 29  1  0  0  0
 13  7  1  0  0  0
 13 14  1  0  0  0
 13 20  1  0  0  0
 14 18  1  0  0  0
 14 29  1  0  0  0
 15 28  1  0  0  0
 16  6  1  0  0  0
 16 27  1  0  0  0
 17 28  1  0  0  0
  1  3  2  0  0  0
  2  4  2  0  0  0
  5  6  2  0  0  0
  7 22  2  0  0  0
  8 17  2  0  0  0
  9 23  2  0  0  0
 10 24  2  0  0  0
 11 25  2  0  0  0
M  CHG  1  21  -1
M  END
> <rmsd>
0.324128628

$$$$
ZINC03871978


 29 31  0  0  0  0  0  0  0  0999 V2000
   -3.4179   -2.6088   -0.7921 C   0  0  0  0  0
   -2.6837   -1.4009   -0.8642 C   0  0  0  0  0
   -4.5011   -2.3498    0.0150 C   0  0  0  0  0
   -3.3708   -0.4898   -0.0963 C   0  0  0  0  0
    3.1081   -0.1455   -0.2809 C   0  0  0  0  0
    3.6505   -0.6200    0.8657 C   0  0  0  0  0
    1.1909    1.2995   -1.1038 C   0  0  0  0  0
   -3.1018    0.9397    0.2160 C   0  0  0  0  0
    3.5601   -0.7043   -1.6251 C   0  0  0  0  0
   -1.8787    1.5949   -0.3696 C   0  0  0  0  0
    5.3487   -3.7512    1.7161 C   0  0  0  0  0
    3.1363   -0.2481    2.2547 C   0  0  0  0  0
    0.5170    2.0169    0.1007 C   0  0  0  0  0
    1.7518    1.5566    0.9056 C   0  0  0  0  0
   -4.3895    3.5995    2.0046 C   0  0  0  0  0
    4.8082   -1.5863    0.9231 C   0  0  0  0  0
   -3.9013    1.6150    0.9854 N   0  0  0  0  0
    2.1123    0.7776   -0.2653 N   0  0  0  0  0
    4.8380   -4.8449    2.3703 N   0  0  0  0  0
   -0.7920    1.4670    0.4499 N   0  0  0  0  0
    2.8982   -1.6946   -2.0318 O   0  0  0  0  0
    0.9649    1.1698   -2.2840 O   0  0  0  0  0
    4.5336   -0.0990   -2.1450 O   0  0  0  0  0
   -1.9813    2.1391   -1.4572 O   0  0  0  0  0
    6.5014   -3.6674    1.3056 O   0  0  0  0  0
   -4.4799   -1.0602    0.4431 O   0  0  0  0  0
    4.4009   -2.7669    1.5827 O   0  0  0  0  0
   -3.4651    2.9362    1.1561 O   0  0  0  0  0
    1.4395    0.4236    2.2786 S   0  0  0  0  0
  1  2  1  0  0  0
  3 26  1  0  0  0
  4  8  1  0  0  0
  4 26  1  0  0  0
  5  9  1  0  0  0
  5 18  1  0  0  0
  7 18  1  0  0  0
  8 10  1  0  0  0
  9 21  1  0  0  0
 10 20  1  0  0  0
 11 19  1  0  0  0
 11 27  1  0  0  0
 12  6  1  0  0  0
 12 29  1  0  0  0
 13  7  1  0  0  0
 13 14  1  0  0  0
 13 20  1  0  0  0
 14 18  1  0  0  0
 14 29  1  0  0  0
 15 28  1  0  0  0
 16  6  1  0  0  0
 16 27  1  0  0  0
 17 28  1  0  0  0
  1  3  2  0  0  0
  2  4  2  0  0  0
  5  6  2  0  0  0
  7 22  2  0  0  0
  8 17  2  0  0  0
  9 23  2  0  0  0
 10 24  2  0  0  0
 11 25  2  0  0  0
M  CHG  1  21  -1
M  END
> <rmsd>
0.0311333332

$$$$
ZINC35299856


 29 31  0  0  0  0  0  0  0  0999 V2000
   -2.9831   -2.5408   -1.0792 C   0  0  0  0  0
   -2.3702   -1.2651   -1.0724 C   0  0  0  0  0
   -4.0686   -2.4476   -0.2395 C   0  0  0  0  0
   -3.1250   -0.4832   -0.2292 C   0  0  0  0  0
    3.1616   -0.0606    1.9177 C   0  0  0  0  0
    3.8329   -0.1206    0.7461 C   0  0  0  0  0
    1.2241    1.8083   -1.1627 C   0  0  0  0  0
   -2.9880    0.9394    0.1841 C   0  0  0  0  0
   -1.8465    1.7513   -0.3691 C   0  0  0  0  0
    3.0839   -0.6966   -1.5023 C   0  0  0  0  0
    6.1655   -2.9121    0.3243 C   0  0  0  0  0
    3.3597    0.4716   -0.5760 C   0  0  0  0  0
    0.5071    2.3697    0.0963 C   0  0  0  0  0
    1.7987    1.9750    0.8402 C   0  0  0  0  0
   -4.4864    3.3246    2.1834 C   0  0  0  0  0
    5.1850   -0.7897    0.6998 C   0  0  0  0  0
   -3.8319    1.4761    1.0130 N   0  0  0  0  0
    2.1738    1.2639   -0.3715 N   0  0  0  0  0
    5.8790   -4.2224    0.0308 N   0  0  0  0  0
   -0.7351    1.6710    0.4228 N   0  0  0  0  0
    2.2133   -1.5142   -1.0942 O   0  0  0  0  0
    1.0261    1.7880   -2.3546 O   0  0  0  0  0
   -2.0245    2.3601   -1.4118 O   0  0  0  0  0
    3.7638   -0.7006   -2.5668 O   0  0  0  0  0
    7.2983   -2.4737    0.4942 O   0  0  0  0  0
   -4.1622   -1.1965    0.2825 O   0  0  0  0  0
    5.0194   -2.1601    0.4021 O   0  0  0  0  0
   -3.5212    2.8177    1.2747 O   0  0  0  0  0
    1.6281    0.7311    2.1474 S   0  0  0  0  0
  1  2  1  0  0  0
  3 26  1  0  0  0
  4  8  1  0  0  0
  4 26  1  0  0  0
  5 29  1  0  0  0
  7 18  1  0  0  0
  8  9  1  0  0  0
  9 20  1  0  0  0
 10 21  1  0  0  0
 11 19  1  0  0  0
 11 27  1  0  0  0
 12  6  1  0  0  0
 12 10  1  0  0  0
 12 18  1  0  0  0
 13  7  1  0  0  0
 13 14  1  0  0  0
 13 20  1  0  0  0
 14 18  1  0  0  0
 14 29  1  0  0  0
 15 28  1  0  0  0
 16  6  1  0  0  0
 16 27  1  0  0  0
 17 28  1  0  0  0
  1  3  2  0  0  0
  2  4  2  0  0  0
  5  6  2  0  0  0
  7 22  2  0  0  0
  8 17  2  0  0  0
  9 23  2  0  0  0
 10 24  2  0  0  0
 11 25  2  0  0  0
M  CHG  1  21  -1
M  END
> <rmsd>
0.415777326

$$$$
ZINC01445186


 30 33  0  0  0  0  0  0  0  0999 V2000
   -3.7270   -8.9948   -1.8886 C   0  0  0  0  0
   -3.6485   -9.1543   -0.4913 C   0  0  0  0  0
    1.6658    2.5886   -1.4431 C   0  0  0  0  0
   -3.6540   -7.7260   -2.4698 C   0  0  0  0  0
   -3.4960   -8.0474    0.3482 C   0  0  0  0  0
   -2.5267   -2.3960   -1.5508 C   0  0  0  0  0
   -3.6010   -2.5306    0.6090 C   0  0  0  0  0
    0.5218    2.6298   -0.6461 C   0  0  0  0  0
    2.2920    1.3694   -1.7019 C   0  0  0  0  0
   -2.3973   -1.0153   -1.4004 C   0  0  0  0  0
   -3.4714   -1.1499    0.7595 C   0  0  0  0  0
    0.6303    0.2324   -0.3667 C   0  0  0  0  0
   -3.5024   -6.6485   -1.6196 C   0  0  0  0  0
   -3.4279   -6.8045   -0.2497 C   0  0  0  0  0
   -3.1287   -3.1537   -0.5461 C   0  0  0  0  0
    0.0040    1.4517   -0.1079 C   0  0  0  0  0
    1.7743    0.1913   -1.1637 C   0  0  0  0  0
   -2.8695   -0.3923   -0.2452 C   0  0  0  0  0
   -3.4041   -5.2231   -1.9209 C   0  0  0  0  0
   -3.2673   -5.4830    0.3503 C   0  0  0  0  0
   -3.2619   -4.5724   -0.7005 N   0  0  0  0  0
   -1.1753    1.4945    0.7141 N   0  0  0  0  0
    2.4116   -1.0495   -1.4284 N   0  0  0  0  0
    3.4390   -1.0640   -2.1488 O   0  0  0  0  0
   -3.4877   -4.8120   -3.0642 O   0  0  0  0  0
   -3.1337   -5.3475    1.5531 O   0  0  0  0  0
    1.9304   -2.0980   -0.9347 O   0  0  0  0  0
   -3.7338    1.7792    0.8787 O   0  0  0  0  0
   -2.6530    1.9460   -1.3803 O   0  0  0  0  0
   -2.7076    1.3356   -0.0575 S   0  0  0  0  0
  1  2  1  0  0  0
  3  9  1  0  0  0
  4 13  1  0  0  0
  5 14  1  0  0  0
  6 15  1  0  0  0
  7 11  1  0  0  0
  8 16  1  0  0  0
 10 18  1  0  0  0
 12 17  1  0  0  0
 13 19  1  0  0  0
 14 20  1  0  0  0
 15 21  1  0  0  0
 16 22  1  0  0  0
 17 23  1  0  0  0
 19 21  1  0  0  0
 20 21  1  0  0  0
 23 24  1  0  0  0
 30 18  1  0  0  0
 30 22  1  0  0  0
  1  4  2  0  0  0
  2  5  2  0  0  0
  3  8  2  0  0  0
  6 10  2  0  0  0
  7 15  2  0  0  0
  9 17  2  0  0  0
 11 18  2  0  0  0
 12 16  2  0  0  0
 13 14  2  0  0  0
 19 25  2  0  0  0
 20 26  2  0  0  0
 23 27  2  0  0  0
 30 28  2  0  0  0
 30 29  2  0  0  0
M  CHG  2  23   1  24  -1
M  END
> <rmsd>
0.55963093

$$$$
ZINC32962192


 29 31  0  0  0  0  0  0  0  0999 V2000
    1.0198    2.8827   -2.1926 C   0  0  0  0  0
   -0.0392    2.7660   -1.2924 C   0  0  0  0  0
   -2.8550   -3.1013   -0.8054 C   0  0  0  0  0
   -2.8346   -2.6136    0.5013 C   0  0  0  0  0
    0.9956    0.8070   -0.3287 C   0  0  0  0  0
   -2.7968   -0.8389   -1.6509 C   0  0  0  0  0
    2.0546    0.9236   -1.2291 C   0  0  0  0  0
    2.0667    1.9614   -2.1610 C   0  0  0  0  0
   -0.0514    1.7283   -0.3604 C   0  0  0  0  0
   -2.8360   -2.2140   -1.8814 C   0  0  0  0  0
   -2.7956   -1.2384    0.7318 C   0  0  0  0  0
   -2.7766   -0.3510   -0.3443 C   0  0  0  0  0
    3.1490   -0.0637   -1.1743 C   0  0  0  0  0
    2.8180    4.5322   -5.2042 C   0  0  0  0  0
    4.0930    4.8474   -4.4191 C   0  0  0  0  0
    2.8865    3.2628   -6.0557 C   0  0  0  0  0
    4.0855    4.3898   -2.9607 C   0  0  0  0  0
    2.2717    2.0188   -5.4143 C   0  0  0  0  0
    4.3107    2.8927   -2.7619 C   0  0  0  0  0
    3.1376    1.3615   -4.3420 C   0  0  0  0  0
    3.1192    2.0958   -3.0725 N   0  0  0  0  0
   -1.1357    1.6092    0.5607 N   0  0  0  0  0
    3.0532   -1.1306   -1.8866 O   0  0  0  0  0
    4.1597    0.1774   -0.4160 O   0  0  0  0  0
   -3.6862    1.6728    0.9983 O   0  0  0  0  0
   -2.8590    2.0584   -1.3396 O   0  0  0  0  0
   -2.8567   -2.6821   -3.1364 F   0  0  0  0  0
   -2.7765   -0.7813    1.9917 F   0  0  0  0  0
   -2.7296    1.3947   -0.0567 S   0  0  0  0  0
  1  2  1  0  0  0
  3 10  1  0  0  0
  4 11  1  0  0  0
  5  9  1  0  0  0
  6 12  1  0  0  0
  7  8  1  0  0  0
  7 13  1  0  0  0
  8 21  1  0  0  0
  9 22  1  0  0  0
 10 27  1  0  0  0
 11 28  1  0  0  0
 13 23  1  0  0  0
 14 15  1  0  0  0
 14 16  1  0  0  0
 15 17  1  0  0  0
 16 18  1  0  0  0
 17 19  1  0  0  0
 18 20  1  0  0  0
 19 21  1  0  0  0
 20 21  1  0  0  0
 29 12  1  0  0  0
 29 22  1  0  0  0
  1  8  2  0  0  0
  2  9  2  0  0  0
  3  4  2  0  0  0
  5  7  2  0  0  0
  6 10  2  0  0  0
 11 12  2  0  0  0
 13 24  2  0  0  0
 29 25  2  0  0  0
 29 26  2  0  0  0
M  CHG  1  23  -1
M  END
> <rmsd>
0.706661463

$$$$
ZINC32962192


 29 31  0  0  0  0  0  0  0  0999 V2000
    0.8676    2.5226   -2.5730 C   0  0  0  0  0
   -0.1078    2.4999   -1.5763 C   0  0  0  0  0
   -3.3099   -3.1220   -0.7201 C   0  0  0  0  0
   -3.1292   -2.6225    0.5696 C   0  0  0  0  0
    0.8586    0.4767   -0.6764 C   0  0  0  0  0
   -3.1570   -0.8809   -1.6096 C   0  0  0  0  0
    1.8341    0.4993   -1.6732 C   0  0  0  0  0
    1.8386    1.5223   -2.6215 C   0  0  0  0  0
   -0.1124    1.4770   -0.6279 C   0  0  0  0  0
   -3.3238   -2.2513   -1.8097 C   0  0  0  0  0
   -2.9625   -1.2521    0.7698 C   0  0  0  0  0
   -2.9764   -0.3813   -0.3198 C   0  0  0  0  0
    2.8493   -0.5703   -1.7019 C   0  0  0  0  0
    2.4966    3.9912   -5.7689 C   0  0  0  0  0
    3.8603    4.2141   -5.1117 C   0  0  0  0  0
    2.3864    2.7107   -6.5992 C   0  0  0  0  0
    3.9547    3.7752   -3.6505 C   0  0  0  0  0
    1.7404    1.5263   -5.8803 C   0  0  0  0  0
    4.0813    2.2673   -3.4456 C   0  0  0  0  0
    2.6500    0.8152   -4.8809 C   0  0  0  0  0
    2.8079    1.5631   -3.6292 N   0  0  0  0  0
   -1.1112    1.4540    0.3920 N   0  0  0  0  0
    2.6048   -1.6344   -2.3821 O   0  0  0  0  0
    3.9424   -0.4007   -1.0454 O   0  0  0  0  0
   -3.5967    1.7229    1.0634 O   0  0  0  0  0
   -2.9657    2.0156   -1.3481 O   0  0  0  0  0
   -3.4985   -2.7306   -3.0483 F   0  0  0  0  0
   -2.7898   -0.7836    2.0137 F   0  0  0  0  0
   -2.7679    1.3585   -0.0706 S   0  0  0  0  0
  1  2  1  0  0  0
  3 10  1  0  0  0
  4 11  1  0  0  0
  5  9  1  0  0  0
  6 12  1  0  0  0
  7  8  1  0  0  0
  7 13  1  0  0  0
  8 21  1  0  0  0
  9 22  1  0  0  0
 10 27  1  0  0  0
 11 28  1  0  0  0
 13 23  1  0  0  0
 14 15  1  0  0  0
 14 16  1  0  0  0
 15 17  1  0  0  0
 16 18  1  0  0  0
 17 19  1  0  0  0
 18 20  1  0  0  0
 19 21  1  0  0  0
 20 21  1  0  0  0
 29 12  1  0  0  0
 29 22  1  0  0  0
  1  8  2  0  0  0
  2  9  2  0  0  0
  3  4  2  0  0  0
  5  7  2  0  0  0
  6 10  2  0  0  0
 11 12  2  0  0  0
 13 24  2  0  0  0
 29 25  2  0  0  0
 29 26  2  0  0  0
M  CHG  1  23  -1
M  END
> <rmsd>
0.525478423

$$$$
ZINC32962192


 29 31  0  0  0  0  0  0  0  0999 V2000
    0.8705    2.5259   -2.5684 C   0  0  0  0  0
   -0.1057    2.5020   -1.5725 C   0  0  0  0  0
   -3.3061   -3.1221   -0.7142 C   0  0  0  0  0
   -2.9063   -2.3098   -1.7752 C   0  0  0  0  0
    0.8584    0.4762   -0.6759 C   0  0  0  0  0
   -3.3775   -1.1919    0.7369 C   0  0  0  0  0
    1.8347    0.5000   -1.6719 C   0  0  0  0  0
    1.8407    1.5249   -2.6182 C   0  0  0  0  0
   -0.1119    1.4772   -0.6262 C   0  0  0  0  0
   -3.5418   -2.5632    0.5419 C   0  0  0  0  0
   -2.7420   -0.9384   -1.5802 C   0  0  0  0  0
   -2.9776   -0.3794   -0.3241 C   0  0  0  0  0
    2.8490   -0.5703   -1.7019 C   0  0  0  0  0
    2.5032    3.9996   -5.7601 C   0  0  0  0  0
    3.8665    4.2201   -5.1014 C   0  0  0  0  0
    2.3926    2.7208   -6.5931 C   0  0  0  0  0
    3.9595    3.7781   -3.6411 C   0  0  0  0  0
    1.7451    1.5356   -5.8770 C   0  0  0  0  0
    4.0847    2.2698   -3.4390 C   0  0  0  0  0
    2.6533    0.8217   -4.8784 C   0  0  0  0  0
    2.8109    1.5669   -3.6250 N   0  0  0  0  0
   -1.1114    1.4530    0.3929 N   0  0  0  0  0
    2.6042   -1.6329   -2.3845 O   0  0  0  0  0
    3.9418   -0.4030   -1.0443 O   0  0  0  0  0
   -3.5973    1.7226    1.0628 O   0  0  0  0  0
   -2.9642    2.0196   -1.3476 O   0  0  0  0  0
   -3.9245   -3.3433    1.5613 F   0  0  0  0  0
   -2.3573   -0.1677   -2.6072 F   0  0  0  0  0
   -2.7679    1.3597   -0.0711 S   0  0  0  0  0
  1  2  1  0  0  0
  3 10  1  0  0  0
  4 11  1  0  0  0
  5  9  1  0  0  0
  6 12  1  0  0  0
  7  8  1  0  0  0
  7 13  1  0  0  0
  8 21  1  0  0  0
  9 22  1  0  0  0
 10 27  1  0  0  0
 11 28  1  0  0  0
 13 23  1  0  0  0
 14 15  1  0  0  0
 14 16  1  0  0  0
 15 17  1  0  0  0
 16 18  1  0  0  0
 17 19  1  0  0  0
 18 20  1  0  0  0
 19 21  1  0  0  0
 20 21  1  0  0  0
 29 12  1  0  0  0
 29 22  1  0  0  0
  1  8  2  0  0  0
  2  9  2  0  0  0
  3  4  2  0  0  0
  5  7  2  0  0  0
  6 10  2  0  0  0
 11 12  2  0  0  0
 13 24  2  0  0  0
 29 25  2  0  0  0
 29 26  2  0  0  0
M  CHG  1  23  -1
M  END
> <rmsd>
0.52581656

$$$$
ZINC32962192


 29 31  0  0  0  0  0  0  0  0999 V2000
    1.0229    2.8851   -2.1870 C   0  0  0  0  0
   -0.0369    2.7675   -1.2880 C   0  0  0  0  0
   -2.8521   -3.1014   -0.7987 C   0  0  0  0  0
   -2.4202   -2.2411   -1.8081 C   0  0  0  0  0
    0.9955    0.8058   -0.3274 C   0  0  0  0  0
   -3.2096   -1.2097    0.6609 C   0  0  0  0  0
    2.0554    0.9232   -1.2266 C   0  0  0  0  0
    2.0691    1.9629   -2.1564 C   0  0  0  0  0
   -0.0507    1.7279   -0.3581 C   0  0  0  0  0
   -3.2469   -2.5858    0.4358 C   0  0  0  0  0
   -2.3829   -0.8650   -1.5830 C   0  0  0  0  0
   -2.7776   -0.3492   -0.3485 C   0  0  0  0  0
    3.1490   -0.0651   -1.1728 C   0  0  0  0  0
    2.8251    4.5392   -5.1938 C   0  0  0  0  0
    4.0997    4.8518   -4.4070 C   0  0  0  0  0
    2.8933    3.2714   -6.0478 C   0  0  0  0  0
    4.0906    4.3913   -2.9495 C   0  0  0  0  0
    2.2769    2.0267   -5.4094 C   0  0  0  0  0
    4.3144    2.8936   -2.7536 C   0  0  0  0  0
    3.1413    1.3666   -4.3377 C   0  0  0  0  0
    3.1225    2.0983   -3.0668 N   0  0  0  0  0
   -1.1359    1.6079    0.5618 N   0  0  0  0  0
    3.0529   -1.1305   -1.8873 O   0  0  0  0  0
    4.1592    0.1738   -0.4132 O   0  0  0  0  0
   -3.6868    1.6726    0.9974 O   0  0  0  0  0
   -2.8572    2.0622   -1.3390 O   0  0  0  0  0
   -3.6605   -3.4119    1.4057 F   0  0  0  0  0
   -1.9659   -0.0480   -2.5604 F   0  0  0  0  0
   -2.7295    1.3958   -0.0573 S   0  0  0  0  0
  1  2  1  0  0  0
  3 10  1  0  0  0
  4 11  1  0  0  0
  5  9  1  0  0  0
  6 12  1  0  0  0
  7  8  1  0  0  0
  7 13  1  0  0  0
  8 21  1  0  0  0
  9 22  1  0  0  0
 10 27  1  0  0  0
 11 28  1  0  0  0
 13 23  1  0  0  0
 14 15  1  0  0  0
 14 16  1  0  0  0
 15 17  1  0  0  0
 16 18  1  0  0  0
 17 19  1  0  0  0
 18 20  1  0  0  0
 19 21  1  0  0  0
 20 21  1  0  0  0
 29 12  1  0  0  0
 29 22  1  0  0  0
  1  8  2  0  0  0
  2  9  2  0  0  0
  3  4  2  0  0  0
  5  7  2  0  0  0
  6 10  2  0  0  0
 11 12  2  0  0  0
 13 24  2  0  0  0
 29 25  2  0  0  0
 29 26  2  0  0  0
M  CHG  1  23  -1
M  END
> <rmsd>
0.706882477

$$$$
ZINC33253481


 30 32  0  0  0  0  0  0  0  0999 V2000
    3.7374    6.4134   -4.5340 C   0  0  0  0  0
    4.1353    5.4682   -5.4794 C   0  0  0  0  0
    3.4447    6.0148   -3.2297 C   0  0  0  0  0
    4.2403    4.1244   -5.1207 C   0  0  0  0  0
    3.5497    4.6710   -2.8709 C   0  0  0  0  0
   -0.1066    2.5016   -1.5742 C   0  0  0  0  0
    0.8689    2.5246   -2.5707 C   0  0  0  0  0
    0.8582    0.4768   -0.6763 C   0  0  0  0  0
   -3.3066   -3.1216   -0.7184 C   0  0  0  0  0
   -3.3759   -1.1948    0.7374 C   0  0  0  0  0
   -2.7426   -0.9359   -1.5796 C   0  0  0  0  0
    1.8338    0.4997   -1.6730 C   0  0  0  0  0
    3.9474    3.7257   -3.8164 C   0  0  0  0  0
   -3.5407   -2.5657    0.5393 C   0  0  0  0  0
   -2.9075   -2.3068   -1.7778 C   0  0  0  0  0
   -0.1121    1.4777   -0.6269 C   0  0  0  0  0
    1.8392    1.5237   -2.6202 C   0  0  0  0  0
   -2.9769   -0.3800   -0.3220 C   0  0  0  0  0
    2.8489   -0.5701   -1.7024 C   0  0  0  0  0
   -3.9672   -3.4369    1.6720 C   0  0  0  0  0
   -2.6570   -2.9014   -3.1224 C   0  0  0  0  0
    2.5836    0.9034   -4.9052 C   0  0  0  0  0
    4.0602    2.2792   -3.4304 C   0  0  0  0  0
   -1.1113    1.4541    0.3926 N   0  0  0  0  0
    2.8179    1.5643   -3.6381 N   0  0  0  0  0
    2.6044   -1.6333   -2.3839 O   0  0  0  0  0
    3.9418   -0.4015   -1.0451 O   0  0  0  0  0
   -3.5971    1.7230    1.0631 O   0  0  0  0  0
   -2.9649    2.0181   -1.3479 O   0  0  0  0  0
   -2.7679    1.3596   -0.0709 S   0  0  0  0  0
  1  2  1  0  0  0
  3  5  1  0  0  0
  4 13  1  0  0  0
  6 16  1  0  0  0
  7 17  1  0  0  0
  8 12  1  0  0  0
  9 15  1  0  0  0
 10 14  1  0  0  0
 11 18  1  0  0  0
 12 19  1  0  0  0
 16 24  1  0  0  0
 17 25  1  0  0  0
 19 26  1  0  0  0
 20 14  1  0  0  0
 21 15  1  0  0  0
 22 25  1  0  0  0
 23 13  1  0  0  0
 23 25  1  0  0  0
 30 18  1  0  0  0
 30 24  1  0  0  0
  1  3  2  0  0  0
  2  4  2  0  0  0
  5 13  2  0  0  0
  6  7  2  0  0  0
  8 16  2  0  0  0
  9 14  2  0  0  0
 10 18  2  0  0  0
 11 15  2  0  0  0
 12 17  2  0  0  0
 19 27  2  0  0  0
 30 28  2  0  0  0
 30 29  2  0  0  0
M  CHG  1  26  -1
M  END
> <rmsd>
0.525930524

$$$$
ZINC33253481


 30 32  0  0  0  0  0  0  0  0999 V2000
    3.7455    7.0185   -3.8303 C   0  0  0  0  0
    4.3025    6.1246   -4.7448 C   0  0  0  0  0
    3.3650    6.5743   -2.5640 C   0  0  0  0  0
    4.4789    4.7864   -4.3930 C   0  0  0  0  0
    3.5414    5.2361   -2.2122 C   0  0  0  0  0
   -0.0380    2.7674   -1.2901 C   0  0  0  0  0
    1.0212    2.8841   -2.1901 C   0  0  0  0  0
    0.9952    0.8066   -0.3284 C   0  0  0  0  0
   -2.8522   -3.1008   -0.8032 C   0  0  0  0  0
   -3.2076   -1.2126    0.6614 C   0  0  0  0  0
   -2.3840   -0.8624   -1.5827 C   0  0  0  0  0
    2.0544    0.9233   -1.2285 C   0  0  0  0  0
    4.0983    4.3421   -3.1268 C   0  0  0  0  0
   -3.2451   -2.5881    0.4331 C   0  0  0  0  0
   -2.4215   -2.2381   -1.8110 C   0  0  0  0  0
   -0.0510    1.7287   -0.3592 C   0  0  0  0  0
    2.0675    1.9621   -2.1593 C   0  0  0  0  0
   -2.7770   -0.3498   -0.3464 C   0  0  0  0  0
    3.1487   -0.0643   -1.1744 C   0  0  0  0  0
   -3.7053   -3.5106    1.5107 C   0  0  0  0  0
   -2.0012   -2.7864   -3.1327 C   0  0  0  0  0
    3.0674    1.4438   -4.3710 C   0  0  0  0  0
    4.2879    2.9017   -2.7482 C   0  0  0  0  0
   -1.1358    1.6091    0.5613 N   0  0  0  0  0
    3.1303    2.0971   -3.0801 N   0  0  0  0  0
    3.0529   -1.1303   -1.8879 O   0  0  0  0  0
    4.1591    0.1758   -0.4152 O   0  0  0  0  0
   -3.6865    1.6729    0.9979 O   0  0  0  0  0
   -2.8580    2.0608   -1.3394 O   0  0  0  0  0
   -2.7295    1.3957   -0.0570 S   0  0  0  0  0
  1  2  1  0  0  0
  3  5  1  0  0  0
  4 13  1  0  0  0
  6 16  1  0  0  0
  7 17  1  0  0  0
  8 12  1  0  0  0
  9 15  1  0  0  0
 10 14  1  0  0  0
 11 18  1  0  0  0
 12 19  1  0  0  0
 16 24  1  0  0  0
 17 25  1  0  0  0
 19 26  1  0  0  0
 20 14  1  0  0  0
 21 15  1  0  0  0
 22 25  1  0  0  0
 23 13  1  0  0  0
 23 25  1  0  0  0
 30 18  1  0  0  0
 30 24  1  0  0  0
  1  3  2  0  0  0
  2  4  2  0  0  0
  5 13  2  0  0  0
  6  7  2  0  0  0
  8 16  2  0  0  0
  9 14  2  0  0  0
 10 18  2  0  0  0
 11 15  2  0  0  0
 12 17  2  0  0  0
 19 27  2  0  0  0
 30 28  2  0  0  0
 30 29  2  0  0  0
M  CHG  1  26  -1
M  END
> <rmsd>
0.707164168

$$$$
ZINC35397612


 29 31  0  0  0  0  0  0  0  0999 V2000
   -3.3332   -3.1265   -0.6948 C   0  0  0  0  0
   -3.1591   -2.6194    0.5928 C   0  0  0  0  0
    0.8683    0.4572   -0.6599 C   0  0  0  0  0
   -3.1572   -0.8928   -1.5985 C   0  0  0  0  0
   -0.0615    2.4513   -1.5631 C   0  0  0  0  0
    1.8375    0.4939   -1.6562 C   0  0  0  0  0
   -0.1029    1.4507   -0.6054 C   0  0  0  0  0
   -3.3321   -2.2633   -1.7905 C   0  0  0  0  0
   -2.9842   -1.2489    0.7848 C   0  0  0  0  0
   -2.9831   -0.3856   -0.3108 C   0  0  0  0  0
    1.7919    1.5372   -2.5670 C   0  0  0  0  0
    2.8652   -0.5598   -1.7118 C   0  0  0  0  0
    2.4568    4.0138   -5.7068 C   0  0  0  0  0
    3.8187    4.2356   -5.0458 C   0  0  0  0  0
    2.3490    2.7352   -6.5405 C   0  0  0  0  0
    3.9098    3.7932   -3.5855 C   0  0  0  0  0
    1.7017    1.5491   -5.8260 C   0  0  0  0  0
    4.0364    2.2849   -3.3838 C   0  0  0  0  0
    2.6090    0.8358   -4.8260 C   0  0  0  0  0
    0.8641    2.5203   -2.5459 N   0  0  0  0  0
    2.7637    1.5807   -3.5721 N   0  0  0  0  0
   -1.1092    1.4401    0.4034 N   0  0  0  0  0
    2.6295   -1.6178   -2.4062 O   0  0  0  0  0
    3.9640   -0.3870   -1.0637 O   0  0  0  0  0
   -3.6006    1.7329    1.0519 O   0  0  0  0  0
   -2.9455    2.0039   -1.3558 O   0  0  0  0  0
   -3.5005   -2.7500   -3.0271 F   0  0  0  0  0
   -2.8181   -0.7730    2.0268 F   0  0  0  0  0
   -2.7642    1.3544   -0.0718 S   0  0  0  0  0
  1  2  1  0  0  0
  3  7  1  0  0  0
  4  8  1  0  0  0
  5 20  1  0  0  0
  6 11  1  0  0  0
  6 12  1  0  0  0
  7 22  1  0  0  0
  8 27  1  0  0  0
  9 10  1  0  0  0
  9 28  1  0  0  0
 11 21  1  0  0  0
 12 23  1  0  0  0
 13 14  1  0  0  0
 13 15  1  0  0  0
 14 16  1  0  0  0
 15 17  1  0  0  0
 16 18  1  0  0  0
 17 19  1  0  0  0
 18 21  1  0  0  0
 19 21  1  0  0  0
 29 10  1  0  0  0
 29 22  1  0  0  0
  1  8  2  0  0  0
  2  9  2  0  0  0
  3  6  2  0  0  0
  4 10  2  0  0  0
  5  7  2  0  0  0
 11 20  2  0  0  0
 12 24  2  0  0  0
 29 25  2  0  0  0
 29 26  2  0  0  0
M  CHG  1  23  -1
M  END
> <rmsd>
0.509695649

$$$$
ZINC35397612


 29 31  0  0  0  0  0  0  0  0999 V2000
   -2.8830   -3.1085   -0.7792 C   0  0  0  0  0
   -2.8696   -2.6128    0.5245 C   0  0  0  0  0
    1.0045    0.7857   -0.3102 C   0  0  0  0  0
   -2.7985   -0.8520   -1.6383 C   0  0  0  0  0
    0.0100    2.7185   -1.2755 C   0  0  0  0  0
    2.0563    0.9146   -1.2104 C   0  0  0  0  0
   -0.0421    1.7007   -0.3368 C   0  0  0  0  0
   -2.8473   -2.2281   -1.8606 C   0  0  0  0  0
   -2.8208   -1.2366    0.7468 C   0  0  0  0  0
   -2.7851   -0.3561   -0.3345 C   0  0  0  0  0
    2.0144    1.9675   -2.1102 C   0  0  0  0  0
    3.1639   -0.0561   -1.1803 C   0  0  0  0  0
    2.7733    4.5440   -5.1466 C   0  0  0  0  0
    4.0463    4.8576   -4.3580 C   0  0  0  0  0
    2.8437    3.2761   -6.0005 C   0  0  0  0  0
    4.0354    4.3972   -2.9004 C   0  0  0  0  0
    2.2273    2.0311   -5.3629 C   0  0  0  0  0
    4.2599    2.8997   -2.7040 C   0  0  0  0  0
    3.0905    1.3716   -4.2897 C   0  0  0  0  0
    1.0148    2.8760   -2.1661 N   0  0  0  0  0
    3.0692    2.1035   -3.0188 N   0  0  0  0  0
   -1.1340    1.5947    0.5726 N   0  0  0  0  0
    3.0771   -1.1163   -1.9051 O   0  0  0  0  0
    4.1808    0.1888   -0.4298 O   0  0  0  0  0
   -3.6902    1.6838    0.9866 O   0  0  0  0  0
   -2.8371    2.0476   -1.3456 O   0  0  0  0  0
   -2.8614   -2.7040   -3.1126 F   0  0  0  0  0
   -2.8086   -0.7719    2.0039 F   0  0  0  0  0
   -2.7259    1.3909   -0.0573 S   0  0  0  0  0
  1  2  1  0  0  0
  3  7  1  0  0  0
  4  8  1  0  0  0
  5 20  1  0  0  0
  6 11  1  0  0  0
  6 12  1  0  0  0
  7 22  1  0  0  0
  8 27  1  0  0  0
  9 10  1  0  0  0
  9 28  1  0  0  0
 11 21  1  0  0  0
 12 23  1  0  0  0
 13 14  1  0  0  0
 13 15  1  0  0  0
 14 16  1  0  0  0
 15 17  1  0  0  0
 16 18  1  0  0  0
 17 19  1  0  0  0
 18 21  1  0  0  0
 19 21  1  0  0  0
 29 10  1  0  0  0
 29 22  1  0  0  0
  1  8  2  0  0  0
  2  9  2  0  0  0
  3  6  2  0  0  0
  4 10  2  0  0  0
  5  7  2  0  0  0
 11 20  2  0  0  0
 12 24  2  0  0  0
 29 25  2  0  0  0
 29 26  2  0  0  0
M  CHG  1  23  -1
M  END
> <rmsd>
0.688598871

$$$$
ZINC35397613


 29 31  0  0  0  0  0  0  0  0999 V2000
   -3.5699   -2.5596    0.5587 C   0  0  0  0  0
   -3.3980   -1.1884    0.7481 C   0  0  0  0  0
    0.8677    0.4570   -0.6600 C   0  0  0  0  0
   -2.7428   -0.9508   -1.5652 C   0  0  0  0  0
   -0.0606    2.4527   -1.5611 C   0  0  0  0  0
    1.8374    0.4944   -1.6558 C   0  0  0  0  0
   -0.1030    1.4510   -0.6048 C   0  0  0  0  0
   -3.3282   -3.1265   -0.6928 C   0  0  0  0  0
   -2.9147   -2.3220   -1.7546 C   0  0  0  0  0
   -2.9844   -0.3840   -0.3138 C   0  0  0  0  0
    1.7928    1.5388   -2.5653 C   0  0  0  0  0
    2.8645   -0.5598   -1.7123 C   0  0  0  0  0
    2.4606    4.0190   -5.7017 C   0  0  0  0  0
    3.8224    4.2392   -5.0398 C   0  0  0  0  0
    2.3525    2.7415   -6.5370 C   0  0  0  0  0
    3.9125    3.7949   -3.5800 C   0  0  0  0  0
    1.7042    1.5548   -5.8243 C   0  0  0  0  0
    4.0381    2.2862   -3.3802 C   0  0  0  0  0
    2.6106    0.8398   -4.8249 C   0  0  0  0  0
    0.8656    2.5225   -2.5435 N   0  0  0  0  0
    2.7651    1.5831   -3.5699 N   0  0  0  0  0
   -1.1097    1.4397    0.4036 N   0  0  0  0  0
    2.6285   -1.6168   -2.4080 O   0  0  0  0  0
    3.9631   -0.3884   -1.0634 O   0  0  0  0  0
   -3.6013    1.7331    1.0512 O   0  0  0  0  0
   -2.9449    2.0067   -1.3558 O   0  0  0  0  0
   -3.4933   -4.4431   -0.8754 F   0  0  0  0  0
   -2.6838   -2.8662   -2.9566 F   0  0  0  0  0
   -2.7646    1.3556   -0.0725 S   0  0  0  0  0
  1  2  1  0  0  0
  3  7  1  0  0  0
  4 10  1  0  0  0
  5 20  1  0  0  0
  6 11  1  0  0  0
  6 12  1  0  0  0
  7 22  1  0  0  0
  8  9  1  0  0  0
  8 27  1  0  0  0
  9 28  1  0  0  0
 11 21  1  0  0  0
 12 23  1  0  0  0
 13 14  1  0  0  0
 13 15  1  0  0  0
 14 16  1  0  0  0
 15 17  1  0  0  0
 16 18  1  0  0  0
 17 19  1  0  0  0
 18 21  1  0  0  0
 19 21  1  0  0  0
 29 10  1  0  0  0
 29 22  1  0  0  0
  1  8  2  0  0  0
  2 10  2  0  0  0
  3  6  2  0  0  0
  4  9  2  0  0  0
  5  7  2  0  0  0
 11 20  2  0  0  0
 12 24  2  0  0  0
 29 25  2  0  0  0
 29 26  2  0  0  0
M  CHG  1  23  -1
M  END
> <rmsd>
0.510697305

$$$$
ZINC35397613


 29 31  0  0  0  0  0  0  0  0999 V2000
   -3.2792   -2.5840    0.4525 C   0  0  0  0  0
   -3.2331   -1.2073    0.6720 C   0  0  0  0  0
    1.0040    0.7849   -0.3098 C   0  0  0  0  0
   -2.3856   -0.8788   -1.5665 C   0  0  0  0  0
    0.0111    2.7196   -1.2731 C   0  0  0  0  0
    2.0564    0.9144   -1.2092 C   0  0  0  0  0
   -0.0421    1.7005   -0.3358 C   0  0  0  0  0
   -2.8785   -3.1082   -0.7765 C   0  0  0  0  0
   -2.4317   -2.2555   -1.7860 C   0  0  0  0  0
   -2.7863   -0.3547   -0.3375 C   0  0  0  0  0
    2.0156    1.9684   -2.1077 C   0  0  0  0  0
    3.1634   -0.0569   -1.1798 C   0  0  0  0  0
    2.7775    4.5483   -5.1405 C   0  0  0  0  0
    4.0503    4.8603   -4.3507 C   0  0  0  0  0
    2.8477    3.2815   -5.9958 C   0  0  0  0  0
    4.0383    4.3980   -2.8938 C   0  0  0  0  0
    2.2302    2.0361   -5.3602 C   0  0  0  0  0
    4.2619    2.9001   -2.6991 C   0  0  0  0  0
    3.0924    1.3748   -4.2874 C   0  0  0  0  0
    1.0165    2.8776   -2.1629 N   0  0  0  0  0
    3.0709    2.1050   -3.0156 N   0  0  0  0  0
   -1.1345    1.5940    0.5730 N   0  0  0  0  0
    3.0764   -1.1162   -1.9060 O   0  0  0  0  0
    4.1800    0.1864   -0.4284 O   0  0  0  0  0
   -3.6909    1.6841    0.9857 O   0  0  0  0  0
   -2.8363    2.0504   -1.3456 O   0  0  0  0  0
   -2.9227   -4.4301   -0.9880 F   0  0  0  0  0
   -2.0480   -2.7587   -2.9666 F   0  0  0  0  0
   -2.7261    1.3920   -0.0580 S   0  0  0  0  0
  1  2  1  0  0  0
  3  7  1  0  0  0
  4 10  1  0  0  0
  5 20  1  0  0  0
  6 11  1  0  0  0
  6 12  1  0  0  0
  7 22  1  0  0  0
  8  9  1  0  0  0
  8 27  1  0  0  0
  9 28  1  0  0  0
 11 21  1  0  0  0
 12 23  1  0  0  0
 13 14  1  0  0  0
 13 15  1  0  0  0
 14 16  1  0  0  0
 15 17  1  0  0  0
 16 18  1  0  0  0
 17 19  1  0  0  0
 18 21  1  0  0  0
 19 21  1  0  0  0
 29 10  1  0  0  0
 29 22  1  0  0  0
  1  8  2  0  0  0
  2 10  2  0  0  0
  3  6  2  0  0  0
  4  9  2  0  0  0
  5  7  2  0  0  0
 11 20  2  0  0  0
 12 24  2  0  0  0
 29 25  2  0  0  0
 29 26  2  0  0  0
M  CHG  1  23  -1
M  END
> <rmsd>
0.689520836

$$$$
ZINC35397612


 29 31  0  0  0  0  0  0  0  0999 V2000
   -2.8807   -3.1078   -0.7736 C   0  0  0  0  0
   -2.4327   -2.2574   -1.7843 C   0  0  0  0  0
    1.0045    0.7845   -0.3088 C   0  0  0  0  0
   -3.2342   -1.2043    0.6716 C   0  0  0  0  0
    0.0127    2.7204   -1.2707 C   0  0  0  0  0
    2.0573    0.9144   -1.2077 C   0  0  0  0  0
   -0.0412    1.7005   -0.3343 C   0  0  0  0  0
   -3.2815   -2.5814    0.4544 C   0  0  0  0  0
   -2.3855   -0.8803   -1.5671 C   0  0  0  0  0
   -2.7862   -0.3537   -0.3391 C   0  0  0  0  0
    2.0172    1.9693   -2.1052 C   0  0  0  0  0
    3.1639   -0.0573   -1.1788 C   0  0  0  0  0
    2.7812    4.5519   -5.1352 C   0  0  0  0  0
    4.0539    4.8626   -4.3446 C   0  0  0  0  0
    2.8513    3.2859   -5.9917 C   0  0  0  0  0
    4.0411    4.3990   -2.8882 C   0  0  0  0  0
    2.2331    2.0401   -5.3575 C   0  0  0  0  0
    4.2641    2.9008   -2.6948 C   0  0  0  0  0
    3.0947    1.3774   -4.2850 C   0  0  0  0  0
    1.0185    2.8790   -2.1599 N   0  0  0  0  0
    3.0729    2.1064   -3.0125 N   0  0  0  0  0
   -1.1340    1.5935    0.5739 N   0  0  0  0  0
    3.0768   -1.1159   -1.9060 O   0  0  0  0  0
    4.1803    0.1849   -0.4268 O   0  0  0  0  0
   -3.6905    1.6841    0.9858 O   0  0  0  0  0
   -2.8349    2.0523   -1.3449 O   0  0  0  0  0
   -3.7104   -3.3980    1.4257 F   0  0  0  0  0
   -1.9531   -0.0729   -2.5456 F   0  0  0  0  0
   -2.7255    1.3926   -0.0579 S   0  0  0  0  0
  1  2  1  0  0  0
  3  7  1  0  0  0
  4  8  1  0  0  0
  5 20  1  0  0  0
  6 11  1  0  0  0
  6 12  1  0  0  0
  7 22  1  0  0  0
  8 27  1  0  0  0
  9 10  1  0  0  0
  9 28  1  0  0  0
 11 21  1  0  0  0
 12 23  1  0  0  0
 13 14  1  0  0  0
 13 15  1  0  0  0
 14 16  1  0  0  0
 15 17  1  0  0  0
 16 18  1  0  0  0
 17 19  1  0  0  0
 18 21  1  0  0  0
 19 21  1  0  0  0
 29 10  1  0  0  0
 29 22  1  0  0  0
  1  8  2  0  0  0
  2  9  2  0  0  0
  3  6  2  0  0  0
  4 10  2  0  0  0
  5  7  2  0  0  0
 11 20  2  0  0  0
 12 24  2  0  0  0
 29 25  2  0  0  0
 29 26  2  0  0  0
M  CHG  1  23  -1
M  END
> <rmsd>
0.688778102

$$$$
ZINC35397612


 29 31  0  0  0  0  0  0  0  0999 V2000
   -3.3299   -3.1258   -0.6900 C   0  0  0  0  0
   -2.9156   -2.3236   -1.7532 C   0  0  0  0  0
    0.8682    0.4569   -0.6594 C   0  0  0  0  0
   -3.3987   -1.1853    0.7476 C   0  0  0  0  0
   -0.0590    2.4539   -1.5589 C   0  0  0  0  0
    1.8382    0.4950   -1.6548 C   0  0  0  0  0
   -0.1021    1.4513   -0.6036 C   0  0  0  0  0
   -3.5715   -2.5568    0.5604 C   0  0  0  0  0
   -2.7429   -0.9521   -1.5659 C   0  0  0  0  0
   -2.9843   -0.3830   -0.3155 C   0  0  0  0  0
    1.7944    1.5403   -2.5633 C   0  0  0  0  0
    2.8650   -0.5596   -1.7120 C   0  0  0  0  0
    2.4642    4.0233   -5.6970 C   0  0  0  0  0
    3.8259    4.2424   -5.0344 C   0  0  0  0  0
    2.3560    2.7467   -6.5337 C   0  0  0  0  0
    3.9153    3.7966   -3.5750 C   0  0  0  0  0
    1.7070    1.5595   -5.8224 C   0  0  0  0  0
    4.0403    2.2877   -3.3766 C   0  0  0  0  0
    2.6128    0.8432   -4.8233 C   0  0  0  0  0
    0.8675    2.5243   -2.5409 N   0  0  0  0  0
    2.7671    1.5852   -3.5676 N   0  0  0  0  0
   -1.1093    1.4393    0.4044 N   0  0  0  0  0
    2.6289   -1.6158   -2.4089 O   0  0  0  0  0
    3.9635   -0.3892   -1.0625 O   0  0  0  0  0
   -3.6010    1.7330    1.0514 O   0  0  0  0  0
   -2.9436    2.0087   -1.3551 O   0  0  0  0  0
   -3.9680   -3.3272    1.5819 F   0  0  0  0  0
   -2.3443   -0.1912   -2.5948 F   0  0  0  0  0
   -2.7640    1.3562   -0.0724 S   0  0  0  0  0
  1  2  1  0  0  0
  3  7  1  0  0  0
  4  8  1  0  0  0
  5 20  1  0  0  0
  6 11  1  0  0  0
  6 12  1  0  0  0
  7 22  1  0  0  0
  8 27  1  0  0  0
  9 10  1  0  0  0
  9 28  1  0  0  0
 11 21  1  0  0  0
 12 23  1  0  0  0
 13 14  1  0  0  0
 13 15  1  0  0  0
 14 16  1  0  0  0
 15 17  1  0  0  0
 16 18  1  0  0  0
 17 19  1  0  0  0
 18 21  1  0  0  0
 19 21  1  0  0  0
 29 10  1  0  0  0
 29 22  1  0  0  0
  1  8  2  0  0  0
  2  9  2  0  0  0
  3  6  2  0  0  0
  4 10  2  0  0  0
  5  7  2  0  0  0
 11 20  2  0  0  0
 12 24  2  0  0  0
 29 25  2  0  0  0
 29 26  2  0  0  0
M  CHG  1  23  -1
M  END
> <rmsd>
0.509927452

$$$$
ZINC35397613


 29 31  0  0  0  0  0  0  0  0999 V2000
   -2.4352   -2.2555   -1.7867 C   0  0  0  0  0
   -2.3865   -0.8790   -1.5662 C   0  0  0  0  0
    1.0044    0.7851   -0.3099 C   0  0  0  0  0
   -3.2336   -1.2078    0.6725 C   0  0  0  0  0
    0.0110    2.7193   -1.2738 C   0  0  0  0  0
    2.0566    0.9145   -1.2096 C   0  0  0  0  0
   -0.0419    1.7006   -0.3361 C   0  0  0  0  0
   -2.8830   -3.1081   -0.7777 C   0  0  0  0  0
   -3.2822   -2.5843    0.4519 C   0  0  0  0  0
   -2.7857   -0.3551   -0.3366 C   0  0  0  0  0
    2.0154    1.9682   -2.1084 C   0  0  0  0  0
    3.1637   -0.0566   -1.1800 C   0  0  0  0  0
    2.7764    4.5471   -5.1423 C   0  0  0  0  0
    4.0493    4.8596   -4.3528 C   0  0  0  0  0
    2.8466    3.2800   -5.9972 C   0  0  0  0  0
    4.0376    4.3979   -2.8957 C   0  0  0  0  0
    2.2295    2.0347   -5.3610 C   0  0  0  0  0
    4.2615    2.9001   -2.7006 C   0  0  0  0  0
    3.0920    1.3739   -4.2881 C   0  0  0  0  0
    1.0162    2.8772   -2.1639 N   0  0  0  0  0
    3.0706    2.1047   -3.0166 N   0  0  0  0  0
   -1.1341    1.5942    0.5729 N   0  0  0  0  0
    3.0768   -1.1162   -1.9058 O   0  0  0  0  0
    4.1804    0.1872   -0.4289 O   0  0  0  0  0
   -3.6905    1.6839    0.9860 O   0  0  0  0  0
   -2.8363    2.0495   -1.3456 O   0  0  0  0  0
   -2.9297   -4.4301   -0.9887 F   0  0  0  0  0
   -3.7111   -3.4031    1.4213 F   0  0  0  0  0
   -2.7258    1.3916   -0.0578 S   0  0  0  0  0
  1  2  1  0  0  0
  3  7  1  0  0  0
  4 10  1  0  0  0
  5 20  1  0  0  0
  6 11  1  0  0  0
  6 12  1  0  0  0
  7 22  1  0  0  0
  8  9  1  0  0  0
  8 27  1  0  0  0
  9 28  1  0  0  0
 11 21  1  0  0  0
 12 23  1  0  0  0
 13 14  1  0  0  0
 13 15  1  0  0  0
 14 16  1  0  0  0
 15 17  1  0  0  0
 16 18  1  0  0  0
 17 19  1  0  0  0
 18 21  1  0  0  0
 19 21  1  0  0  0
 29 10  1  0  0  0
 29 22  1  0  0  0
  1  8  2  0  0  0
  2 10  2  0  0  0
  3  6  2  0  0  0
  4  9  2  0  0  0
  5  7  2  0  0  0
 11 20  2  0  0  0
 12 24  2  0  0  0
 29 25  2  0  0  0
 29 26  2  0  0  0
M  CHG  1  23  -1
M  END
> <rmsd>
0.688657701

$$$$
ZINC35397613


 29 31  0  0  0  0  0  0  0  0999 V2000
   -2.9181   -2.3218   -1.7551 C   0  0  0  0  0
   -2.7436   -0.9510   -1.5648 C   0  0  0  0  0
    0.8681    0.4571   -0.6599 C   0  0  0  0  0
   -3.3986   -1.1888    0.7486 C   0  0  0  0  0
   -0.0606    2.4523   -1.5616 C   0  0  0  0  0
    1.8376    0.4944   -1.6559 C   0  0  0  0  0
   -0.1028    1.4510   -0.6049 C   0  0  0  0  0
   -3.3329   -3.1261   -0.6936 C   0  0  0  0  0
   -3.5730   -2.5596    0.5583 C   0  0  0  0  0
   -2.9838   -0.3845   -0.3130 C   0  0  0  0  0
    1.7927    1.5384   -2.5657 C   0  0  0  0  0
    2.8649   -0.5597   -1.7122 C   0  0  0  0  0
    2.4596    4.0177   -5.7031 C   0  0  0  0  0
    3.8215    4.2383   -5.0414 C   0  0  0  0  0
    2.3517    2.7399   -6.5380 C   0  0  0  0  0
    3.9119    3.7945   -3.5815 C   0  0  0  0  0
    1.7037    1.5533   -5.8248 C   0  0  0  0  0
    4.0378    2.2860   -3.3812 C   0  0  0  0  0
    2.6104    0.8388   -4.8252 C   0  0  0  0  0
    0.8653    2.5219   -2.5442 N   0  0  0  0  0
    2.7649    1.5825   -3.5705 N   0  0  0  0  0
   -1.1094    1.4398    0.4036 N   0  0  0  0  0
    2.6291   -1.6170   -2.4076 O   0  0  0  0  0
    3.9636   -0.3879   -1.0635 O   0  0  0  0  0
   -3.6009    1.7329    1.0514 O   0  0  0  0  0
   -2.9449    2.0059   -1.3558 O   0  0  0  0  0
   -3.5004   -4.4425   -0.8755 F   0  0  0  0  0
   -3.9701   -3.3321    1.5779 F   0  0  0  0  0
   -2.7643    1.3552   -0.0723 S   0  0  0  0  0
  1  2  1  0  0  0
  3  7  1  0  0  0
  4 10  1  0  0  0
  5 20  1  0  0  0
  6 11  1  0  0  0
  6 12  1  0  0  0
  7 22  1  0  0  0
  8  9  1  0  0  0
  8 27  1  0  0  0
  9 28  1  0  0  0
 11 21  1  0  0  0
 12 23  1  0  0  0
 13 14  1  0  0  0
 13 15  1  0  0  0
 14 16  1  0  0  0
 15 17  1  0  0  0
 16 18  1  0  0  0
 17 19  1  0  0  0
 18 21  1  0  0  0
 19 21  1  0  0  0
 29 10  1  0  0  0
 29 22  1  0  0  0
  1  8  2  0  0  0
  2 10  2  0  0  0
  3  6  2  0  0  0
  4  9  2  0  0  0
  5  7  2  0  0  0
 11 20  2  0  0  0
 12 24  2  0  0  0
 29 25  2  0  0  0
 29 26  2  0  0  0
M  CHG  1  23  -1
M  END
> <rmsd>
0.509739995

$$$$
ZINC64843299


 30 32  0  0  0  0  0  0  0  0999 V2000
    3.7245    7.0146   -3.7681 C   0  0  0  0  0
    4.2550    6.1172   -4.6948 C   0  0  0  0  0
    3.3609    6.5709   -2.4967 C   0  0  0  0  0
    4.4219    4.7759   -4.3500 C   0  0  0  0  0
    3.5278    5.2296   -2.1519 C   0  0  0  0  0
    1.0043    0.7847   -0.3096 C   0  0  0  0  0
   -2.8809   -3.1086   -0.7764 C   0  0  0  0  0
   -3.2324   -1.2080    0.6731 C   0  0  0  0  0
   -2.3869   -0.8794   -1.5662 C   0  0  0  0  0
    0.0111    2.7189   -1.2737 C   0  0  0  0  0
    2.0566    0.9140   -1.2093 C   0  0  0  0  0
    4.0582    4.3321   -3.0785 C   0  0  0  0  0
   -3.2798   -2.5846    0.4531 C   0  0  0  0  0
   -2.4344   -2.2560   -1.7861 C   0  0  0  0  0
   -0.0418    1.7002   -0.3359 C   0  0  0  0  0
   -2.7858   -0.3554   -0.3366 C   0  0  0  0  0
    2.0155    1.9676   -2.1081 C   0  0  0  0  0
    3.1637   -0.0573   -1.1795 C   0  0  0  0  0
   -3.7571   -3.4962    1.5326 C   0  0  0  0  0
   -2.0076   -2.8164   -3.1006 C   0  0  0  0  0
    3.0023    1.4415   -4.3239 C   0  0  0  0  0
    4.2365    2.8978   -2.7100 C   0  0  0  0  0
    1.0164    2.8767   -2.1637 N   0  0  0  0  0
   -1.1342    1.5940    0.5731 N   0  0  0  0  0
    3.0742    2.1044   -3.0192 N   0  0  0  0  0
    3.0767   -1.1168   -1.9054 O   0  0  0  0  0
    4.1804    0.1864   -0.4285 O   0  0  0  0  0
   -3.6904    1.6838    0.9860 O   0  0  0  0  0
   -2.8362    2.0494   -1.3455 O   0  0  0  0  0
   -2.7259    1.3914   -0.0578 S   0  0  0  0  0
  1  2  1  0  0  0
  3  5  1  0  0  0
  4 12  1  0  0  0
  6 15  1  0  0  0
  7 14  1  0  0  0
  8 13  1  0  0  0
  9 16  1  0  0  0
 10 23  1  0  0  0
 11 17  1  0  0  0
 11 18  1  0  0  0
 15 24  1  0  0  0
 17 25  1  0  0  0
 18 26  1  0  0  0
 19 13  1  0  0  0
 20 14  1  0  0  0
 21 25  1  0  0  0
 22 12  1  0  0  0
 22 25  1  0  0  0
 30 16  1  0  0  0
 30 24  1  0  0  0
  1  3  2  0  0  0
  2  4  2  0  0  0
  5 12  2  0  0  0
  6 11  2  0  0  0
  7 13  2  0  0  0
  8 16  2  0  0  0
  9 14  2  0  0  0
 10 15  2  0  0  0
 17 23  2  0  0  0
 18 27  2  0  0  0
 30 28  2  0  0  0
 30 29  2  0  0  0
M  CHG  1  26  -1
M  END
> <rmsd>
0.689175844

$$$$
ZINC64843299


 30 32  0  0  0  0  0  0  0  0999 V2000
    3.7192    6.4184   -4.4676 C   0  0  0  0  0
    4.0897    5.4725   -5.4234 C   0  0  0  0  0
    3.4442    6.0180   -3.1601 C   0  0  0  0  0
    4.1851    4.1261   -5.0716 C   0  0  0  0  0
    3.5395    4.6716   -2.8083 C   0  0  0  0  0
    0.8680    0.4568   -0.6595 C   0  0  0  0  0
   -3.3306   -3.1267   -0.6924 C   0  0  0  0  0
   -3.3974   -1.1891    0.7492 C   0  0  0  0  0
   -2.7440   -0.9514   -1.5647 C   0  0  0  0  0
   -0.0606    2.4520   -1.5614 C   0  0  0  0  0
    1.8376    0.4941   -1.6554 C   0  0  0  0  0
    3.9100    3.7256   -3.7641 C   0  0  0  0  0
   -3.5706   -2.5601    0.5593 C   0  0  0  0  0
   -2.9173   -2.3223   -1.7544 C   0  0  0  0  0
   -0.1027    1.4507   -0.6047 C   0  0  0  0  0
   -2.9840   -0.3847   -0.3128 C   0  0  0  0  0
    1.7928    1.5380   -2.5653 C   0  0  0  0  0
    2.8649   -0.5602   -1.7115 C   0  0  0  0  0
   -4.0124   -3.4201    1.6948 C   0  0  0  0  0
   -2.6605   -2.9283   -3.0927 C   0  0  0  0  0
    2.5231    0.9129   -4.8535 C   0  0  0  0  0
    4.0119    2.2858   -3.3881 C   0  0  0  0  0
    0.8654    2.5216   -2.5439 N   0  0  0  0  0
   -1.1095    1.4397    0.4039 N   0  0  0  0  0
    2.7682    1.5822   -3.5734 N   0  0  0  0  0
    2.6290   -1.6175   -2.4070 O   0  0  0  0  0
    3.9635   -0.3885   -1.0629 O   0  0  0  0  0
   -3.6010    1.7328    1.0514 O   0  0  0  0  0
   -2.9449    2.0058   -1.3557 O   0  0  0  0  0
   -2.7644    1.3550   -0.0723 S   0  0  0  0  0
  1  2  1  0  0  0
  3  5  1  0  0  0
  4 12  1  0  0  0
  6 15  1  0  0  0
  7 14  1  0  0  0
  8 13  1  0  0  0
  9 16  1  0  0  0
 10 23  1  0  0  0
 11 17  1  0  0  0
 11 18  1  0  0  0
 15 24  1  0  0  0
 17 25  1  0  0  0
 18 26  1  0  0  0
 19 13  1  0  0  0
 20 14  1  0  0  0
 21 25  1  0  0  0
 22 12  1  0  0  0
 22 25  1  0  0  0
 30 16  1  0  0  0
 30 24  1  0  0  0
  1  3  2  0  0  0
  2  4  2  0  0  0
  5 12  2  0  0  0
  6 11  2  0  0  0
  7 13  2  0  0  0
  8 16  2  0  0  0
  9 14  2  0  0  0
 10 15  2  0  0  0
 17 23  2  0  0  0
 18 27  2  0  0  0
 30 28  2  0  0  0
 30 29  2  0  0  0
M  CHG  1  26  -1
M  END
> <rmsd>
0.510061443

$$$$
ZINC12805727


 30 32  0  0  0  0  0  0  0  0999 V2000
   -7.6063    4.1671   -1.5497 C   0  0  0  0  0
   -2.3481   -2.7777    0.0564 C   0  0  0  0  0
   -3.0005   -0.9886   -1.4303 C   0  0  0  0  0
   -6.5713    4.1642   -2.4847 C   0  0  0  0  0
   -7.3205    4.0200   -0.1924 C   0  0  0  0  0
   -3.6073   -2.7392    0.6554 C   0  0  0  0  0
   -4.2597   -0.9500   -0.8313 C   0  0  0  0  0
   -2.0447   -1.9024   -0.9864 C   0  0  0  0  0
   -5.2504    4.0139   -2.0624 C   0  0  0  0  0
   -5.9996    3.8698    0.2299 C   0  0  0  0  0
   -4.9646    3.8667   -0.7051 C   0  0  0  0  0
   -4.5630   -1.8254    0.2114 C   0  0  0  0  0
   -0.7428   -1.9424   -1.6060 C   0  0  0  0  0
    1.3456   -1.5345   -2.0321 C   0  0  0  0  0
   -0.3339    1.0389   -0.4142 C   0  0  0  0  0
   -3.0722    2.6409    0.4176 C   0  0  0  0  0
   -4.1636    4.0144   -3.0883 C   0  0  0  0  0
   -5.7255    3.7140    1.6908 C   0  0  0  0  0
   -6.7211   -0.8293    0.2928 C   0  0  0  0  0
    0.3377   -0.2765   -0.0823 C   0  0  0  0  0
   -1.5979    2.8808    0.6797 C   0  0  0  0  0
   -0.4003   -2.6767   -2.6403 N   0  0  0  0  0
    0.9284   -2.4172   -2.9114 N   0  0  0  0  0
    0.3259   -1.2074   -1.1906 N   0  0  0  0  0
   -3.6244    3.7140   -0.2767 N   0  0  0  0  0
   -0.8929    1.6203    0.7146 N   0  0  0  0  0
   -0.3707    1.5134   -1.5462 O   0  0  0  0  0
   -3.6429    1.6177    0.7815 O   0  0  0  0  0
   -5.7918   -1.7881    0.7957 O   0  0  0  0  0
    2.9118   -0.8891   -1.9393 S   0  0  0  0  0
  1  5  1  0  0  0
  2  8  1  0  0  0
  3  7  1  0  0  0
  4  9  1  0  0  0
  6 12  1  0  0  0
  8 13  1  0  0  0
 10 11  1  0  0  0
 11 25  1  0  0  0
 12 29  1  0  0  0
 13 24  1  0  0  0
 14 23  1  0  0  0
 14 24  1  0  0  0
 15 26  1  0  0  0
 16 25  1  0  0  0
 17  9  1  0  0  0
 18 10  1  0  0  0
 19 29  1  0  0  0
 20 15  1  0  0  0
 20 24  1  0  0  0
 21 16  1  0  0  0
 21 26  1  0  0  0
 22 23  1  0  0  0
  1  4  2  0  0  0
  2  6  2  0  0  0
  3  8  2  0  0  0
  5 10  2  0  0  0
  7 12  2  0  0  0
  9 11  2  0  0  0
 13 22  2  0  0  0
 14 30  2  0  0  0
 15 27  2  0  0  0
 16 28  2  0  0  0
M  CHG  1  30  -1
M  END
> <rmsd>
0.499043137

$$$$
ZINC12805727


 30 32  0  0  0  0  0  0  0  0999 V2000
   -7.9452    4.6113    1.1960 C   0  0  0  0  0
   -2.3521   -2.7953   -0.0225 C   0  0  0  0  0
   -2.9021   -1.1154   -1.6694 C   0  0  0  0  0
   -7.4176    4.7988   -0.0815 C   0  0  0  0  0
   -7.1180    4.1916    2.2377 C   0  0  0  0  0
   -3.6545   -2.7356    0.4734 C   0  0  0  0  0
   -4.2045   -1.0556   -1.1735 C   0  0  0  0  0
   -1.9759   -1.9853   -1.0939 C   0  0  0  0  0
   -6.0627    4.5665   -0.3174 C   0  0  0  0  0
   -5.7629    3.9593    2.0018 C   0  0  0  0  0
   -5.2352    4.1467    0.7242 C   0  0  0  0  0
   -4.5806   -1.8657   -0.1021 C   0  0  0  0  0
   -0.6292   -2.0472   -1.6069 C   0  0  0  0  0
    1.4824   -1.6389   -1.8960 C   0  0  0  0  0
   -0.3408    1.0103   -0.5852 C   0  0  0  0  0
   -3.1611    2.7192    0.6572 C   0  0  0  0  0
   -5.5271    4.7758   -1.6968 C   0  0  0  0  0
   -4.9024    3.5102    3.1381 C   0  0  0  0  0
   -6.7471   -0.8964   -0.2535 C   0  0  0  0  0
    0.3142   -0.2714   -0.1168 C   0  0  0  0  0
   -1.7025    2.9015    0.2844 C   0  0  0  0  0
   -0.2006   -2.8422   -2.5612 N   0  0  0  0  0
    1.1429   -2.5823   -2.7451 N   0  0  0  0  0
    0.3973   -1.2721   -1.1592 N   0  0  0  0  0
   -3.8605    3.9108    0.4849 N   0  0  0  0  0
   -0.9914    1.6558    0.4563 N   0  0  0  0  0
   -0.2933    1.4100   -1.7455 O   0  0  0  0  0
   -3.6083    1.6431    1.0410 O   0  0  0  0  0
   -5.8516   -1.8077    0.3816 O   0  0  0  0  0
    3.0308   -0.9672   -1.7248 S   0  0  0  0  0
  1  5  1  0  0  0
  2  8  1  0  0  0
  3  7  1  0  0  0
  4  9  1  0  0  0
  6 12  1  0  0  0
  8 13  1  0  0  0
 10 11  1  0  0  0
 11 25  1  0  0  0
 12 29  1  0  0  0
 13 24  1  0  0  0
 14 23  1  0  0  0
 14 24  1  0  0  0
 15 26  1  0  0  0
 16 25  1  0  0  0
 17  9  1  0  0  0
 18 10  1  0  0  0
 19 29  1  0  0  0
 20 15  1  0  0  0
 20 24  1  0  0  0
 21 16  1  0  0  0
 21 26  1  0  0  0
 22 23  1  0  0  0
  1  4  2  0  0  0
  2  6  2  0  0  0
  3  8  2  0  0  0
  5 10  2  0  0  0
  7 12  2  0  0  0
  9 11  2  0  0  0
 13 22  2  0  0  0
 14 30  2  0  0  0
 15 27  2  0  0  0
 16 28  2  0  0  0
M  CHG  1  30  -1
M  END
> <rmsd>
0.539741516

$$$$
ZINC13001874


 30 32  0  0  0  0  0  0  0  0999 V2000
   -7.1344    2.8965   -1.4081 C   0  0  0  0  0
   -2.1936   -2.9202   -0.0320 C   0  0  0  0  0
   -2.8516   -1.1769   -1.5698 C   0  0  0  0  0
   -7.2566    2.9627   -2.7960 C   0  0  0  0  0
   -5.8718    2.9354   -0.8165 C   0  0  0  0  0
   -3.4711   -2.9084    0.5281 C   0  0  0  0  0
   -4.1291   -1.1651   -1.0099 C   0  0  0  0  0
   -1.8838   -2.0545   -1.0808 C   0  0  0  0  0
   -6.1162    3.0676   -3.5923 C   0  0  0  0  0
   -4.8536    3.1065   -3.0008 C   0  0  0  0  0
   -4.7313    3.0404   -1.6128 C   0  0  0  0  0
   -4.4388   -2.0309    0.0390 C   0  0  0  0  0
   -0.5629   -2.0668   -1.6601 C   0  0  0  0  0
    1.5249   -1.6051   -2.0305 C   0  0  0  0  0
   -0.2770    0.9453   -0.5109 C   0  0  0  0  0
   -3.0846    2.4803    0.2088 C   0  0  0  0  0
   -6.2755    3.1354   -5.0761 C   0  0  0  0  0
   -3.6330    3.2193   -3.8597 C   0  0  0  0  0
   -6.6262   -1.0974    0.0373 C   0  0  0  0  0
    0.4218   -0.3438   -0.1351 C   0  0  0  0  0
   -1.6265    2.7679    0.5108 C   0  0  0  0  0
   -0.1679   -2.8086   -2.6701 N   0  0  0  0  0
    1.1604   -2.5148   -2.9058 N   0  0  0  0  0
    0.4709   -1.2936   -1.2262 N   0  0  0  0  0
   -3.4604    3.0772   -0.9917 N   0  0  0  0  0
   -0.8869    1.5295    0.5897 N   0  0  0  0  0
   -0.2928    1.3989   -1.6520 O   0  0  0  0  0
   -3.7842    1.7994    0.9519 O   0  0  0  0  0
   -5.6855   -2.0196    0.5852 O   0  0  0  0  0
    3.0682   -0.9124   -1.9024 S   0  0  0  0  0
  1  5  1  0  0  0
  2  8  1  0  0  0
  3  7  1  0  0  0
  4  9  1  0  0  0
  6 12  1  0  0  0
  8 13  1  0  0  0
 10 11  1  0  0  0
 11 25  1  0  0  0
 12 29  1  0  0  0
 13 24  1  0  0  0
 14 23  1  0  0  0
 14 24  1  0  0  0
 15 26  1  0  0  0
 16 25  1  0  0  0
 17  9  1  0  0  0
 18 10  1  0  0  0
 19 29  1  0  0  0
 20 15  1  0  0  0
 20 24  1  0  0  0
 21 16  1  0  0  0
 21 26  1  0  0  0
 22 23  1  0  0  0
  1  4  2  0  0  0
  2  6  2  0  0  0
  3  8  2  0  0  0
  5 11  2  0  0  0
  7 12  2  0  0  0
  9 10  2  0  0  0
 13 22  2  0  0  0
 14 30  2  0  0  0
 15 27  2  0  0  0
 16 28  2  0  0  0
M  CHG  1  30  -1
M  END
> <rmsd>
0.561965823

$$$$
ZINC13001874


 30 32  0  0  0  0  0  0  0  0999 V2000
   -7.3896    3.3105    1.4303 C   0  0  0  0  0
   -2.3527   -2.7949   -0.0224 C   0  0  0  0  0
   -2.9026   -1.1148   -1.6691 C   0  0  0  0  0
   -7.9508    4.5679    1.2081 C   0  0  0  0  0
   -6.0319    3.1002    1.1888 C   0  0  0  0  0
   -3.6551   -2.7351    0.4735 C   0  0  0  0  0
   -4.2050   -1.0550   -1.1733 C   0  0  0  0  0
   -1.9764   -1.9848   -1.0936 C   0  0  0  0  0
   -7.1545    5.6150    0.7441 C   0  0  0  0  0
   -5.7970    5.4047    0.5025 C   0  0  0  0  0
   -5.2356    4.1472    0.7248 C   0  0  0  0  0
   -4.5812   -1.8652   -0.1020 C   0  0  0  0  0
   -0.6297   -2.0467   -1.6067 C   0  0  0  0  0
    1.4819   -1.6385   -1.8957 C   0  0  0  0  0
   -0.3412    1.0107   -0.5847 C   0  0  0  0  0
   -3.1615    2.7196    0.6577 C   0  0  0  0  0
   -7.7813    6.9512    0.5133 C   0  0  0  0  0
   -4.9468    6.5315    0.0048 C   0  0  0  0  0
   -6.7476   -0.8958   -0.2534 C   0  0  0  0  0
    0.3138   -0.2710   -0.1164 C   0  0  0  0  0
   -1.7029    2.9019    0.2850 C   0  0  0  0  0
   -0.2011   -2.8416   -2.5610 N   0  0  0  0  0
    1.1424   -2.5818   -2.7448 N   0  0  0  0  0
    0.3968   -1.2717   -1.1589 N   0  0  0  0  0
   -3.8609    3.9112    0.4855 N   0  0  0  0  0
   -0.9919    1.6562    0.4568 N   0  0  0  0  0
   -0.2937    1.4105   -1.7449 O   0  0  0  0  0
   -3.6088    1.6435    1.0414 O   0  0  0  0  0
   -5.8522   -1.8072    0.3817 O   0  0  0  0  0
    3.0303   -0.9668   -1.7244 S   0  0  0  0  0
  1  5  1  0  0  0
  2  8  1  0  0  0
  3  7  1  0  0  0
  4  9  1  0  0  0
  6 12  1  0  0  0
  8 13  1  0  0  0
 10 11  1  0  0  0
 11 25  1  0  0  0
 12 29  1  0  0  0
 13 24  1  0  0  0
 14 23  1  0  0  0
 14 24  1  0  0  0
 15 26  1  0  0  0
 16 25  1  0  0  0
 17  9  1  0  0  0
 18 10  1  0  0  0
 19 29  1  0  0  0
 20 15  1  0  0  0
 20 24  1  0  0  0
 21 16  1  0  0  0
 21 26  1  0  0  0
 22 23  1  0  0  0
  1  4  2  0  0  0
  2  6  2  0  0  0
  3  8  2  0  0  0
  5 11  2  0  0  0
  7 12  2  0  0  0
  9 10  2  0  0  0
 13 22  2  0  0  0
 14 30  2  0  0  0
 15 27  2  0  0  0
 16 28  2  0  0  0
M  CHG  1  30  -1
M  END
> <rmsd>
0.539832175

$$$$
ZINC13001874


 30 32  0  0  0  0  0  0  0  0999 V2000
   -7.2098    2.9850   -0.8399 C   0  0  0  0  0
   -2.3480   -2.7778    0.0569 C   0  0  0  0  0
   -3.0004   -0.9887   -1.4297 C   0  0  0  0  0
   -7.6160    4.1258   -1.5322 C   0  0  0  0  0
   -5.8840    2.8555   -0.4260 C   0  0  0  0  0
   -3.6072   -2.7393    0.6560 C   0  0  0  0  0
   -4.2596   -0.9501   -0.8308 C   0  0  0  0  0
   -2.0446   -1.9025   -0.9858 C   0  0  0  0  0
   -6.6964    5.1370   -1.8108 C   0  0  0  0  0
   -5.3706    5.0074   -1.3969 C   0  0  0  0  0
   -4.9645    3.8666   -0.7045 C   0  0  0  0  0
   -4.5629   -1.8255    0.2120 C   0  0  0  0  0
   -0.7427   -1.9425   -1.6054 C   0  0  0  0  0
    1.3457   -1.5346   -2.0315 C   0  0  0  0  0
   -0.3338    1.0387   -0.4136 C   0  0  0  0  0
   -3.0720    2.6408    0.4182 C   0  0  0  0  0
   -7.1576    6.3474   -2.5548 C   0  0  0  0  0
   -4.3877    6.0952   -1.6983 C   0  0  0  0  0
   -6.0348   -2.7114    1.8567 C   0  0  0  0  0
    0.3378   -0.2766   -0.0817 C   0  0  0  0  0
   -1.5978    2.8807    0.6803 C   0  0  0  0  0
   -0.4002   -2.6769   -2.6397 N   0  0  0  0  0
    0.9285   -2.4173   -2.9108 N   0  0  0  0  0
    0.3260   -1.2075   -1.1900 N   0  0  0  0  0
   -3.6242    3.7139   -0.2761 N   0  0  0  0  0
   -0.8928    1.6202    0.7151 N   0  0  0  0  0
   -0.3706    1.5133   -1.5457 O   0  0  0  0  0
   -3.6428    1.6176    0.7821 O   0  0  0  0  0
   -5.7917   -1.7882    0.7963 O   0  0  0  0  0
    2.9119   -0.8892   -1.9387 S   0  0  0  0  0
  1  5  1  0  0  0
  2  8  1  0  0  0
  3  7  1  0  0  0
  4  9  1  0  0  0
  6 12  1  0  0  0
  8 13  1  0  0  0
 10 11  1  0  0  0
 11 25  1  0  0  0
 12 29  1  0  0  0
 13 24  1  0  0  0
 14 23  1  0  0  0
 14 24  1  0  0  0
 15 26  1  0  0  0
 16 25  1  0  0  0
 17  9  1  0  0  0
 18 10  1  0  0  0
 19 29  1  0  0  0
 20 15  1  0  0  0
 20 24  1  0  0  0
 21 16  1  0  0  0
 21 26  1  0  0  0
 22 23  1  0  0  0
  1  4  2  0  0  0
  2  6  2  0  0  0
  3  8  2  0  0  0
  5 11  2  0  0  0
  7 12  2  0  0  0
  9 10  2  0  0  0
 13 22  2  0  0  0
 14 30  2  0  0  0
 15 27  2  0  0  0
 16 28  2  0  0  0
M  CHG  1  30  -1
M  END
> <rmsd>
0.499043167

$$$$
ZINC13001874


 30 32  0  0  0  0  0  0  0  0999 V2000
   -7.5634    3.3246    0.7423 C   0  0  0  0  0
   -2.2603   -2.9153   -0.1077 C   0  0  0  0  0
   -2.7834   -1.3004   -1.8269 C   0  0  0  0  0
   -8.2531    3.6434   -0.4274 C   0  0  0  0  0
   -6.1708    3.2452    0.7313 C   0  0  0  0  0
   -3.5852   -2.8814    0.3273 C   0  0  0  0  0
   -4.1083   -1.2666   -1.3919 C   0  0  0  0  0
   -1.8593   -2.1248   -1.1847 C   0  0  0  0  0
   -7.5502    3.8827   -1.6083 C   0  0  0  0  0
   -6.1576    3.8032   -1.6193 C   0  0  0  0  0
   -5.4679    3.4844   -0.4495 C   0  0  0  0  0
   -4.5091   -2.0571   -0.3149 C   0  0  0  0  0
   -0.4894   -2.1599   -1.6347 C   0  0  0  0  0
    1.6203   -1.6954   -1.8408 C   0  0  0  0  0
   -0.3380    0.9328   -0.6926 C   0  0  0  0  0
   -3.2611    2.5889    0.3706 C   0  0  0  0  0
   -8.3135    4.2209   -2.8470 C   0  0  0  0  0
   -5.4080    4.0609   -2.8889 C   0  0  0  0  0
   -6.6940   -1.1595   -0.5921 C   0  0  0  0  0
    0.3323   -0.3144   -0.1573 C   0  0  0  0  0
   -1.7930    2.8053    0.0583 C   0  0  0  0  0
    0.0056   -2.9681   -2.5447 N   0  0  0  0  0
    1.3479   -2.6725   -2.6758 N   0  0  0  0  0
    0.4923   -1.3413   -1.1647 N   0  0  0  0  0
   -4.0555    3.3974   -0.4382 N   0  0  0  0  0
   -1.0542    1.5874    0.2990 N   0  0  0  0  0
   -0.2492    1.3007   -1.8609 O   0  0  0  0  0
   -3.6377    1.7897    1.2218 O   0  0  0  0  0
   -5.8021   -2.0244    0.1094 O   0  0  0  0  0
    3.1389   -0.9719   -1.6204 S   0  0  0  0  0
  1  5  1  0  0  0
  2  8  1  0  0  0
  3  7  1  0  0  0
  4  9  1  0  0  0
  6 12  1  0  0  0
  8 13  1  0  0  0
 10 11  1  0  0  0
 11 25  1  0  0  0
 12 29  1  0  0  0
 13 24  1  0  0  0
 14 23  1  0  0  0
 14 24  1  0  0  0
 15 26  1  0  0  0
 16 25  1  0  0  0
 17  9  1  0  0  0
 18 10  1  0  0  0
 19 29  1  0  0  0
 20 15  1  0  0  0
 20 24  1  0  0  0
 21 16  1  0  0  0
 21 26  1  0  0  0
 22 23  1  0  0  0
  1  4  2  0  0  0
  2  6  2  0  0  0
  3  8  2  0  0  0
  5 11  2  0  0  0
  7 12  2  0  0  0
  9 10  2  0  0  0
 13 22  2  0  0  0
 14 30  2  0  0  0
 15 27  2  0  0  0
 16 28  2  0  0  0
M  CHG  1  30  -1
M  END
> <rmsd>
0.667822897

$$$$
ZINC16925299


 27 29  0  0  0  0  0  0  0  0999 V2000
   -3.5858   -1.0597    0.5009 C   0  0  0  0  0
   -4.7943   -1.2945   -1.5780 C   0  0  0  0  0
   -3.7844   -2.4139    0.7693 C   0  0  0  0  0
   -4.9929   -2.6489   -1.3095 C   0  0  0  0  0
    1.3784   -1.6180    0.3159 C   0  0  0  0  0
   -4.0909   -0.5000   -0.6728 C   0  0  0  0  0
   -4.4879   -3.2086   -0.1358 C   0  0  0  0  0
    1.5812   -1.0123   -0.9064 C   0  0  0  0  0
    0.1569    0.4240   -0.0590 C   0  0  0  0  0
   -3.7732    1.8403    0.0784 C   0  0  0  0  0
   -3.8045    1.3776   -2.2516 C   0  0  0  0  0
   -0.9780    2.5678   -0.7359 C   0  0  0  0  0
    3.8782   -0.9316   -1.8064 C   0  0  0  0  0
   -3.4113    3.2083   -0.4510 C   0  0  0  0  0
    2.4677   -1.5083   -1.9776 C   0  0  0  0  0
   -1.9670    3.5457   -0.1192 C   0  0  0  0  0
    0.8813    0.1584   -1.1235 N   0  0  0  0  0
   -3.8854    0.8973   -0.9500 N   0  0  0  0  0
   -0.7075    1.5257    0.1462 N   0  0  0  0  0
    4.4722   -1.2698   -0.7436 O   0  0  0  0  0
   -3.9540    1.6660    1.2814 O   0  0  0  0  0
   -3.7809    0.7650   -3.3089 O   0  0  0  0  0
   -0.5181    2.7305   -1.8613 O   0  0  0  0  0
    4.2742   -0.1905   -2.7502 O   0  0  0  0  0
    0.2698   -0.6915    1.2400 S   0  0  0  0  0
   -3.6566    3.1262   -2.2344 S   0  0  0  0  0
   -4.7330   -4.8797    0.1957 Cl  0  0  0  0  0
  1  3  1  0  0  0
  2  6  1  0  0  0
  4  7  1  0  0  0
  5 25  1  0  0  0
  6 18  1  0  0  0
  7 27  1  0  0  0
  8 17  1  0  0  0
  9 19  1  0  0  0
  9 25  1  0  0  0
 10 18  1  0  0  0
 11 18  1  0  0  0
 11 26  1  0  0  0
 12 19  1  0  0  0
 13 20  1  0  0  0
 14 10  1  0  0  0
 14 16  1  0  0  0
 14 26  1  0  0  0
 15  8  1  0  0  0
 15 13  1  0  0  0
 16 12  1  0  0  0
  1  6  2  0  0  0
  2  4  2  0  0  0
  3  7  2  0  0  0
  5  8  2  0  0  0
  9 17  2  0  0  0
 10 21  2  0  0  0
 11 22  2  0  0  0
 12 23  2  0  0  0
 13 24  2  0  0  0
M  CHG  1  20  -1
M  END
> <rmsd>
0.541874945

$$$$
ZINC21883359


 25 27  0  0  0  0  0  0  0  0999 V2000
   -3.2322   -1.2076    0.6729 C   0  0  0  0  0
   -2.3865   -0.8788   -1.5662 C   0  0  0  0  0
   -3.2798   -2.5842    0.4529 C   0  0  0  0  0
   -2.4339   -2.2554   -1.7862 C   0  0  0  0  0
    1.0047    0.7849   -0.3096 C   0  0  0  0  0
    0.0115    2.7192   -1.2732 C   0  0  0  0  0
    2.0569    0.9142   -1.2092 C   0  0  0  0  0
   -0.0415    1.7005   -0.3357 C   0  0  0  0  0
   -2.7856   -0.3549   -0.3367 C   0  0  0  0  0
   -2.8806   -3.1081   -0.7767 C   0  0  0  0  0
    2.0159    1.9681   -2.1079 C   0  0  0  0  0
    3.1639   -0.0570   -1.1796 C   0  0  0  0  0
    5.1715    2.6997   -3.9569 C   0  0  0  0  0
    4.3704    1.9483   -5.0007 C   0  0  0  0  0
    4.4861    2.3010   -2.6549 C   0  0  0  0  0
    2.9420    2.0741   -4.4832 C   0  0  0  0  0
    1.0168    2.8772   -2.1632 N   0  0  0  0  0
    3.0780    2.1053   -3.0218 N   0  0  0  0  0
   -1.1338    1.5942    0.5733 N   0  0  0  0  0
    3.0769   -1.1166   -1.9056 O   0  0  0  0  0
    4.1806    0.1864   -0.4284 O   0  0  0  0  0
   -3.6901    1.6842    0.9862 O   0  0  0  0  0
   -2.8359    2.0499   -1.3452 O   0  0  0  0  0
   -2.7255    1.3918   -0.0577 S   0  0  0  0  0
   -2.9454   -4.9732   -1.0749 Br  0  0  0  0  0
  1  3  1  0  0  0
  2  9  1  0  0  0
  4 10  1  0  0  0
  5  8  1  0  0  0
  6 17  1  0  0  0
  7 11  1  0  0  0
  7 12  1  0  0  0
  8 19  1  0  0  0
 10 25  1  0  0  0
 11 18  1  0  0  0
 12 20  1  0  0  0
 13 14  1  0  0  0
 13 15  1  0  0  0
 14 16  1  0  0  0
 15 18  1  0  0  0
 16 18  1  0  0  0
 24  9  1  0  0  0
 24 19  1  0  0  0
  1  9  2  0  0  0
  2  4  2  0  0  0
  3 10  2  0  0  0
  5  7  2  0  0  0
  6  8  2  0  0  0
 11 17  2  0  0  0
 12 21  2  0  0  0
 24 22  2  0  0  0
 24 23  2  0  0  0
M  CHG  1  20  -1
M  END
> <rmsd>
0.688897908

$$$$
ZINC21883359


 25 27  0  0  0  0  0  0  0  0999 V2000
   -3.3969   -1.1888    0.7488 C   0  0  0  0  0
   -2.7435   -0.9506   -1.5649 C   0  0  0  0  0
   -3.5702   -2.5597    0.5589 C   0  0  0  0  0
   -2.9167   -2.3216   -1.7549 C   0  0  0  0  0
    0.8684    0.4573   -0.6599 C   0  0  0  0  0
   -0.0603    2.4527   -1.5612 C   0  0  0  0  0
    1.8379    0.4947   -1.6558 C   0  0  0  0  0
   -0.1024    1.4512   -0.6047 C   0  0  0  0  0
   -2.9836   -0.3842   -0.3131 C   0  0  0  0  0
   -3.3300   -3.1261   -0.6930 C   0  0  0  0  0
    1.7930    1.5390   -2.5655 C   0  0  0  0  0
    2.8651   -0.5593   -1.7122 C   0  0  0  0  0
    4.8068    2.0031   -4.7134 C   0  0  0  0  0
    3.8556    1.3053   -5.6644 C   0  0  0  0  0
    4.2187    1.6728   -3.3463 C   0  0  0  0  0
    2.4963    1.5474   -5.0183 C   0  0  0  0  0
    0.8656    2.5225   -2.5436 N   0  0  0  0  0
    2.7715    1.5834   -3.5767 N   0  0  0  0  0
   -1.1091    1.4399    0.4039 N   0  0  0  0  0
    2.6292   -1.6165   -2.4079 O   0  0  0  0  0
    3.9638   -0.3878   -1.0635 O   0  0  0  0  0
   -3.6006    1.7330    1.0517 O   0  0  0  0  0
   -2.9446    2.0064   -1.3554 O   0  0  0  0  0
   -2.7640    1.3554   -0.0722 S   0  0  0  0  0
   -3.5652   -4.9836   -0.9505 Br  0  0  0  0  0
  1  3  1  0  0  0
  2  9  1  0  0  0
  4 10  1  0  0  0
  5  8  1  0  0  0
  6 17  1  0  0  0
  7 11  1  0  0  0
  7 12  1  0  0  0
  8 19  1  0  0  0
 10 25  1  0  0  0
 11 18  1  0  0  0
 12 20  1  0  0  0
 13 14  1  0  0  0
 13 15  1  0  0  0
 14 16  1  0  0  0
 15 18  1  0  0  0
 16 18  1  0  0  0
 24  9  1  0  0  0
 24 19  1  0  0  0
  1  9  2  0  0  0
  2  4  2  0  0  0
  3 10  2  0  0  0
  5  7  2  0  0  0
  6  8  2  0  0  0
 11 17  2  0  0  0
 12 21  2  0  0  0
 24 22  2  0  0  0
 24 23  2  0  0  0
M  CHG  1  20  -1
M  END
> <rmsd>
0.510049462

$$$$
ZINC41125203


 30 33  0  0  0  0  0  0  0  0999 V2000
   -3.7276   -2.4936    0.9367 C   0  0  0  0  0
   -3.3942   -1.1473    0.6564 C   0  0  0  0  0
   -3.8606   -3.4470   -0.0878 C   0  0  0  0  0
    1.6969   -0.3990   -0.7049 C   0  0  0  0  0
   -2.8458   -0.2766   -3.4778 C   0  0  0  0  0
    0.5825   -0.0745    0.0686 C   0  0  0  0  0
   -2.6841    0.7667   -2.5484 C   0  0  0  0  0
    0.4980    2.1062   -0.9678 C   0  0  0  0  0
   -3.1855   -0.7276   -0.6748 C   0  0  0  0  0
   -3.3309   -1.7149   -1.6432 C   0  0  0  0  0
   -3.6532   -3.0208   -1.3822 C   0  0  0  0  0
    2.2119    0.5292   -1.6099 C   0  0  0  0  0
   -3.1739   -1.5247   -2.9891 C   0  0  0  0  0
   -0.0170    1.1781   -0.0628 C   0  0  0  0  0
    1.6124    1.7818   -1.7414 C   0  0  0  0  0
   -2.8499    0.5532   -1.1605 C   0  0  0  0  0
   -3.7060   -3.7273   -2.6803 C   0  0  0  0  0
    3.3902    0.1698   -2.4193 C   0  0  0  0  0
   -1.2014   -4.3182   -4.9429 C   0  0  0  0  0
   -1.8895   -3.1024   -5.5473 C   0  0  0  0  0
   -3.3240   -2.9351   -5.0608 C   0  0  0  0  0
   -3.4017   -2.7521   -3.6334 N   0  0  0  0  0
   -1.1656    1.5125    0.7352 N   0  0  0  0  0
    3.9124   -0.9964   -2.2661 O   0  0  0  0  0
   -3.9661   -4.9075   -2.8154 O   0  0  0  0  0
    3.8559    1.0348   -3.2505 O   0  0  0  0  0
   -3.7146    1.8751    0.8964 O   0  0  0  0  0
   -2.4385    3.1130   -0.8751 O   0  0  0  0  0
    2.1013    2.7021   -2.6195 O   0  0  0  0  0
   -2.6311    1.9104   -0.0767 S   0  0  0  0  0
  1  3  1  0  0  0
  2  9  1  0  0  0
  4 12  1  0  0  0
  5 13  1  0  0  0
  6 14  1  0  0  0
  7 16  1  0  0  0
  8 15  1  0  0  0
  9 10  1  0  0  0
 10 11  1  0  0  0
 11 17  1  0  0  0
 12 18  1  0  0  0
 13 22  1  0  0  0
 14 23  1  0  0  0
 15 29  1  0  0  0
 17 22  1  0  0  0
 18 24  1  0  0  0
 19 20  1  0  0  0
 20 21  1  0  0  0
 21 22  1  0  0  0
 30 16  1  0  0  0
 30 23  1  0  0  0
  1  2  2  0  0  0
  3 11  2  0  0  0
  4  6  2  0  0  0
  5  7  2  0  0  0
  8 14  2  0  0  0
  9 16  2  0  0  0
 10 13  2  0  0  0
 12 15  2  0  0  0
 17 25  2  0  0  0
 18 26  2  0  0  0
 30 27  2  0  0  0
 30 28  2  0  0  0
M  CHG  1  24  -1
M  END
> <rmsd>
0.491586447

$$$$
ZINC41125203


 30 33  0  0  0  0  0  0  0  0999 V2000
   -3.7274   -2.4931    0.9371 C   0  0  0  0  0
   -3.3940   -1.1469    0.6567 C   0  0  0  0  0
   -3.8604   -3.4466   -0.0873 C   0  0  0  0  0
    1.6970   -0.3985   -0.7049 C   0  0  0  0  0
   -2.8457   -0.2765   -3.4776 C   0  0  0  0  0
    0.5827   -0.0740    0.0687 C   0  0  0  0  0
   -2.6840    0.7669   -2.5483 C   0  0  0  0  0
    0.4981    2.1066   -0.9679 C   0  0  0  0  0
   -3.1853   -0.7273   -0.6745 C   0  0  0  0  0
   -3.3308   -1.7147   -1.6429 C   0  0  0  0  0
   -3.6530   -3.0205   -1.3818 C   0  0  0  0  0
    2.2119    0.5296   -1.6100 C   0  0  0  0  0
   -3.1738   -1.5245   -2.9888 C   0  0  0  0  0
   -0.0169    1.1785   -0.0628 C   0  0  0  0  0
    1.6124    1.7822   -1.7415 C   0  0  0  0  0
   -2.8499    0.5535   -1.1604 C   0  0  0  0  0
   -3.7059   -3.7271   -2.6798 C   0  0  0  0  0
    3.3902    0.1702   -2.4193 C   0  0  0  0  0
   -4.5888   -2.8866   -7.2581 C   0  0  0  0  0
   -4.6564   -2.6744   -5.7525 C   0  0  0  0  0
   -3.3239   -2.9350   -5.0604 C   0  0  0  0  0
   -3.4017   -2.7520   -3.6330 N   0  0  0  0  0
   -1.1655    1.5130    0.7352 N   0  0  0  0  0
    3.9124   -0.9960   -2.2661 O   0  0  0  0  0
   -3.9659   -4.9073   -2.8148 O   0  0  0  0  0
    3.8559    1.0352   -3.2506 O   0  0  0  0  0
   -3.7145    1.8755    0.8965 O   0  0  0  0  0
   -2.4384    3.1133   -0.8752 O   0  0  0  0  0
    2.1013    2.7025   -2.6197 O   0  0  0  0  0
   -2.6310    1.9108   -0.0766 S   0  0  0  0  0
  1  3  1  0  0  0
  2  9  1  0  0  0
  4 12  1  0  0  0
  5 13  1  0  0  0
  6 14  1  0  0  0
  7 16  1  0  0  0
  8 15  1  0  0  0
  9 10  1  0  0  0
 10 11  1  0  0  0
 11 17  1  0  0  0
 12 18  1  0  0  0
 13 22  1  0  0  0
 14 23  1  0  0  0
 15 29  1  0  0  0
 17 22  1  0  0  0
 18 24  1  0  0  0
 19 20  1  0  0  0
 20 21  1  0  0  0
 21 22  1  0  0  0
 30 16  1  0  0  0
 30 23  1  0  0  0
  1  2  2  0  0  0
  3 11  2  0  0  0
  4  6  2  0  0  0
  5  7  2  0  0  0
  8 14  2  0  0  0
  9 16  2  0  0  0
 10 13  2  0  0  0
 12 15  2  0  0  0
 17 25  2  0  0  0
 18 26  2  0  0  0
 30 27  2  0  0  0
 30 28  2  0  0  0
M  CHG  1  24  -1
M  END
> <rmsd>
0.491752476

$$$$
ZINC64580596


 29 31  0  0  0  0  0  0  0  0999 V2000
    1.0215    2.8840   -2.1893 C   0  0  0  0  0
   -0.0380    2.7669   -1.2898 C   0  0  0  0  0
   -3.2444   -2.5881    0.4339 C   0  0  0  0  0
   -3.2082   -1.2124    0.6615 C   0  0  0  0  0
    0.9954    0.8063   -0.3280 C   0  0  0  0  0
   -2.3828   -0.8630   -1.5822 C   0  0  0  0  0
    2.0549    0.9234   -1.2277 C   0  0  0  0  0
    2.0680    1.9622   -2.1583 C   0  0  0  0  0
   -0.0511    1.7281   -0.3590 C   0  0  0  0  0
   -2.8498   -3.1013   -0.8017 C   0  0  0  0  0
   -2.4191   -2.2387   -1.8097 C   0  0  0  0  0
   -2.7774   -0.3499   -0.3466 C   0  0  0  0  0
    3.1487   -0.0647   -1.1735 C   0  0  0  0  0
    4.2719    2.9154   -2.6640 C   0  0  0  0  0
    2.8453    2.0460   -4.5090 C   0  0  0  0  0
    5.5183    2.5118   -3.4397 C   0  0  0  0  0
    4.0956    1.6487   -5.2833 C   0  0  0  0  0
    6.1092    2.4559   -7.2091 C   0  0  0  0  0
    6.4548    2.3141   -5.7429 C   0  0  0  0  0
    3.1216    2.0972   -3.0698 N   0  0  0  0  0
   -1.1358    1.6085    0.5615 N   0  0  0  0  0
    5.2265    2.5754   -4.9175 N   0  0  0  0  0
    3.0527   -1.1306   -1.8871 O   0  0  0  0  0
    4.1592    0.1751   -0.4144 O   0  0  0  0  0
   -3.6867    1.6728    0.9981 O   0  0  0  0  0
   -2.8581    2.0608   -1.3392 O   0  0  0  0  0
   -2.8847   -4.4222   -1.0210 F   0  0  0  0  0
   -2.0413   -2.7314   -2.9966 F   0  0  0  0  0
   -2.7297    1.3955   -0.0569 S   0  0  0  0  0
  1  8  1  0  0  0
  2  9  1  0  0  0
  3 10  1  0  0  0
  4 12  1  0  0  0
  5  7  1  0  0  0
  6 11  1  0  0  0
  7 13  1  0  0  0
  8 20  1  0  0  0
  9 21  1  0  0  0
 10 27  1  0  0  0
 11 28  1  0  0  0
 13 23  1  0  0  0
 14 16  1  0  0  0
 14 20  1  0  0  0
 15 17  1  0  0  0
 15 20  1  0  0  0
 16 22  1  0  0  0
 17 22  1  0  0  0
 18 19  1  0  0  0
 19 22  1  0  0  0
 29 12  1  0  0  0
 29 21  1  0  0  0
  1  2  2  0  0  0
  3  4  2  0  0  0
  5  9  2  0  0  0
  6 12  2  0  0  0
  7  8  2  0  0  0
 10 11  2  0  0  0
 13 24  2  0  0  0
 29 25  2  0  0  0
 29 26  2  0  0  0
M  CHG  2  22   1  23  -1
M  END
> <rmsd>
0.707416296

$$$$
ZINC64580596


 29 31  0  0  0  0  0  0  0  0999 V2000
    0.8692    2.5248   -2.5702 C   0  0  0  0  0
   -0.1067    2.5014   -1.5740 C   0  0  0  0  0
   -3.5395   -2.5658    0.5399 C   0  0  0  0  0
   -3.3761   -1.1947    0.7375 C   0  0  0  0  0
    0.8585    0.4767   -0.6761 C   0  0  0  0  0
   -2.7413   -0.9365   -1.5793 C   0  0  0  0  0
    1.8344    0.5002   -1.6725 C   0  0  0  0  0
    1.8398    1.5242   -2.6195 C   0  0  0  0  0
   -0.1121    1.4774   -0.6269 C   0  0  0  0  0
   -3.3037   -3.1222   -0.7173 C   0  0  0  0  0
   -2.9047   -2.3076   -1.7769 C   0  0  0  0  0
   -2.9771   -0.3800   -0.3222 C   0  0  0  0  0
    2.8491   -0.5700   -1.7019 C   0  0  0  0  0
    4.0531    2.2958   -3.3456 C   0  0  0  0  0
    2.3964    1.5201   -5.0334 C   0  0  0  0  0
    5.1862    1.7869   -4.2263 C   0  0  0  0  0
    3.5339    1.0173   -5.9131 C   0  0  0  0  0
    5.4134    1.6422   -8.0326 C   0  0  0  0  0
    5.8835    1.4903   -6.6025 C   0  0  0  0  0
    2.8102    1.5658   -3.6273 N   0  0  0  0  0
   -1.1113    1.4537    0.3927 N   0  0  0  0  0
    4.7622    1.8565   -5.6714 N   0  0  0  0  0
    2.6045   -1.6331   -2.3835 O   0  0  0  0  0
    3.9421   -0.4016   -1.0447 O   0  0  0  0  0
   -3.5971    1.7228    1.0633 O   0  0  0  0  0
   -2.9649    2.0181   -1.3477 O   0  0  0  0  0
   -3.4608   -4.4388   -0.9078 F   0  0  0  0  0
   -2.6795   -2.8418   -2.9844 F   0  0  0  0  0
   -2.7679    1.3594   -0.0708 S   0  0  0  0  0
  1  8  1  0  0  0
  2  9  1  0  0  0
  3 10  1  0  0  0
  4 12  1  0  0  0
  5  7  1  0  0  0
  6 11  1  0  0  0
  7 13  1  0  0  0
  8 20  1  0  0  0
  9 21  1  0  0  0
 10 27  1  0  0  0
 11 28  1  0  0  0
 13 23  1  0  0  0
 14 16  1  0  0  0
 14 20  1  0  0  0
 15 17  1  0  0  0
 15 20  1  0  0  0
 16 22  1  0  0  0
 17 22  1  0  0  0
 18 19  1  0  0  0
 19 22  1  0  0  0
 29 12  1  0  0  0
 29 21  1  0  0  0
  1  2  2  0  0  0
  3  4  2  0  0  0
  5  9  2  0  0  0
  6 12  2  0  0  0
  7  8  2  0  0  0
 10 11  2  0  0  0
 13 24  2  0  0  0
 29 25  2  0  0  0
 29 26  2  0  0  0
M  CHG  2  22   1  23  -1
M  END
> <rmsd>
0.526526809

$$$$
ZINC64580596


 29 31  0  0  0  0  0  0  0  0999 V2000
    1.0206    2.8832   -2.1910 C   0  0  0  0  0
   -0.0387    2.7663   -1.2912 C   0  0  0  0  0
   -2.4228   -2.2392   -1.8105 C   0  0  0  0  0
   -2.3841   -0.8637   -1.5821 C   0  0  0  0  0
    0.9953    0.8063   -0.3287 C   0  0  0  0  0
   -3.2090   -1.2132    0.6617 C   0  0  0  0  0
    2.0546    0.9233   -1.2286 C   0  0  0  0  0
    2.0673    1.9617   -2.1598 C   0  0  0  0  0
   -0.0514    1.7279   -0.3599 C   0  0  0  0  0
   -2.8547   -3.1016   -0.8028 C   0  0  0  0  0
   -3.2477   -2.5887    0.4333 C   0  0  0  0  0
   -2.7772   -0.3507   -0.3460 C   0  0  0  0  0
    3.1487   -0.0645   -1.1742 C   0  0  0  0  0
    4.2709    2.9152   -2.6663 C   0  0  0  0  0
    2.8441    2.0445   -4.5106 C   0  0  0  0  0
    5.5173    2.5114   -3.4421 C   0  0  0  0  0
    4.0944    1.6472   -5.2850 C   0  0  0  0  0
    6.1075    2.4540   -7.2115 C   0  0  0  0  0
    6.4533    2.3130   -5.7454 C   0  0  0  0  0
    3.1207    2.0965   -3.0715 N   0  0  0  0  0
   -1.1359    1.6085    0.5609 N   0  0  0  0  0
    5.2251    2.5743   -4.9198 N   0  0  0  0  0
    3.0528   -1.1308   -1.8873 O   0  0  0  0  0
    4.1593    0.1759   -0.4154 O   0  0  0  0  0
   -3.6867    1.6724    0.9979 O   0  0  0  0  0
   -2.8586    2.0595   -1.3397 O   0  0  0  0  0
   -2.8918   -4.4227   -1.0215 F   0  0  0  0  0
   -3.6612   -3.4169    1.4013 F   0  0  0  0  0
   -2.7298    1.3949   -0.0571 S   0  0  0  0  0
  1  8  1  0  0  0
  2  9  1  0  0  0
  3 10  1  0  0  0
  4 12  1  0  0  0
  5  7  1  0  0  0
  6 11  1  0  0  0
  7 13  1  0  0  0
  8 20  1  0  0  0
  9 21  1  0  0  0
 10 27  1  0  0  0
 11 28  1  0  0  0
 13 23  1  0  0  0
 14 16  1  0  0  0
 14 20  1  0  0  0
 15 17  1  0  0  0
 15 20  1  0  0  0
 16 22  1  0  0  0
 17 22  1  0  0  0
 18 19  1  0  0  0
 19 22  1  0  0  0
 29 12  1  0  0  0
 29 21  1  0  0  0
  1  2  2  0  0  0
  3  4  2  0  0  0
  5  9  2  0  0  0
  6 12  2  0  0  0
  7  8  2  0  0  0
 10 11  2  0  0  0
 13 24  2  0  0  0
 29 25  2  0  0  0
 29 26  2  0  0  0
M  CHG  2  22   1  23  -1
M  END
> <rmsd>
0.706490517

$$$$
ZINC64580596


 29 31  0  0  0  0  0  0  0  0999 V2000
    0.8684    2.5239   -2.5715 C   0  0  0  0  0
   -0.1074    2.5006   -1.5751 C   0  0  0  0  0
   -2.9084   -2.3078   -1.7774 C   0  0  0  0  0
   -2.7426   -0.9371   -1.5791 C   0  0  0  0  0
    0.8585    0.4766   -0.6765 C   0  0  0  0  0
   -3.3771   -1.1954    0.7377 C   0  0  0  0  0
    1.8342    0.4999   -1.6730 C   0  0  0  0  0
    1.8392    1.5235   -2.6205 C   0  0  0  0  0
   -0.1124    1.4771   -0.6276 C   0  0  0  0  0
   -3.3088   -3.1223   -0.7180 C   0  0  0  0  0
   -3.5430   -2.5661    0.5395 C   0  0  0  0  0
   -2.9769   -0.3809   -0.3216 C   0  0  0  0  0
    2.8492   -0.5701   -1.7022 C   0  0  0  0  0
    4.0522    2.2953   -3.3473 C   0  0  0  0  0
    2.3955    1.5185   -5.0345 C   0  0  0  0  0
    5.1853    1.7863   -4.2279 C   0  0  0  0  0
    3.5329    1.0156   -5.9142 C   0  0  0  0  0
    5.4119    1.6400   -8.0342 C   0  0  0  0  0
    5.8823    1.4889   -6.6041 C   0  0  0  0  0
    2.8094    1.5649   -3.6285 N   0  0  0  0  0
   -1.1114    1.4536    0.3921 N   0  0  0  0  0
    4.7611    1.8552   -5.6730 N   0  0  0  0  0
    2.6047   -1.6335   -2.3833 O   0  0  0  0  0
    3.9422   -0.4011   -1.0452 O   0  0  0  0  0
   -3.5972    1.7224    1.0630 O   0  0  0  0  0
   -2.9654    2.0169   -1.3482 O   0  0  0  0  0
   -3.4680   -4.4387   -0.9077 F   0  0  0  0  0
   -3.9262   -3.3483    1.5570 F   0  0  0  0  0
   -2.7681    1.3587   -0.0710 S   0  0  0  0  0
  1  8  1  0  0  0
  2  9  1  0  0  0
  3 10  1  0  0  0
  4 12  1  0  0  0
  5  7  1  0  0  0
  6 11  1  0  0  0
  7 13  1  0  0  0
  8 20  1  0  0  0
  9 21  1  0  0  0
 10 27  1  0  0  0
 11 28  1  0  0  0
 13 23  1  0  0  0
 14 16  1  0  0  0
 14 20  1  0  0  0
 15 17  1  0  0  0
 15 20  1  0  0  0
 16 22  1  0  0  0
 17 22  1  0  0  0
 18 19  1  0  0  0
 19 22  1  0  0  0
 29 12  1  0  0  0
 29 21  1  0  0  0
  1  2  2  0  0  0
  3  4  2  0  0  0
  5  9  2  0  0  0
  6 12  2  0  0  0
  7  8  2  0  0  0
 10 11  2  0  0  0
 13 24  2  0  0  0
 29 25  2  0  0  0
 29 26  2  0  0  0
M  CHG  2  22   1  23  -1
M  END
> <rmsd>
0.525530756

$$$$
ZINC16923162


 30 32  0  0  0  0  0  0  0  0999 V2000
   -4.3096   -2.8943   -1.3671 C   0  0  0  0  0
   -4.0010   -3.3362   -0.0806 C   0  0  0  0  0
   -4.1300   -1.5531   -1.7057 C   0  0  0  0  0
    2.2274   -1.5073    0.6094 C   0  0  0  0  0
    0.3896   -0.3003    1.6104 C   0  0  0  0  0
    1.2841    0.4095   -0.5187 C   0  0  0  0  0
   -3.3334   -1.0957    0.5289 C   0  0  0  0  0
    1.3168   -1.3415    1.6528 C   0  0  0  0  0
    2.2112   -0.6317   -0.4763 C   0  0  0  0  0
   -3.5130   -2.4370    0.8674 C   0  0  0  0  0
   -3.6420   -0.6538   -0.7576 C   0  0  0  0  0
    0.3733    0.5754    0.5247 C   0  0  0  0  0
   -3.5803    1.7495   -0.1557 C   0  0  0  0  0
   -3.1640    1.1200   -2.4084 C   0  0  0  0  0
    1.3337   -2.2655    2.7984 C   0  0  0  0  0
    3.1723   -0.8071   -1.5776 C   0  0  0  0  0
   -0.7220    2.5898   -0.5165 C   0  0  0  0  0
   -3.1947    3.0960   -0.7223 C   0  0  0  0  0
   -3.1832   -2.9093    2.2428 C   0  0  0  0  0
   -1.8530    3.5458   -0.1675 C   0  0  0  0  0
   -3.4574    0.7301   -1.1071 N   0  0  0  0  0
   -0.5666    1.6324    0.4819 N   0  0  0  0  0
    0.4824   -2.0901    3.7487 O   0  0  0  0  0
    3.1357    0.0148   -2.5683 O   0  0  0  0  0
   -3.9685    1.6509    1.0061 O   0  0  0  0  0
   -2.9186    0.4359   -3.3909 O   0  0  0  0  0
    2.1997   -3.2188    2.8130 O   0  0  0  0  0
    4.0174   -1.7767   -1.5140 O   0  0  0  0  0
   -0.0733    2.6998   -1.5515 O   0  0  0  0  0
   -3.1066    2.8711   -2.5081 S   0  0  0  0  0
  1  3  1  0  0  0
  2 10  1  0  0  0
  4  8  1  0  0  0
  5 12  1  0  0  0
  6  9  1  0  0  0
  7 11  1  0  0  0
  8 15  1  0  0  0
  9 16  1  0  0  0
 11 21  1  0  0  0
 12 22  1  0  0  0
 13 21  1  0  0  0
 14 21  1  0  0  0
 14 30  1  0  0  0
 15 23  1  0  0  0
 16 24  1  0  0  0
 17 22  1  0  0  0
 18 13  1  0  0  0
 18 20  1  0  0  0
 18 30  1  0  0  0
 19 10  1  0  0  0
 20 17  1  0  0  0
  1  2  2  0  0  0
  3 11  2  0  0  0
  4  9  2  0  0  0
  5  8  2  0  0  0
  6 12  2  0  0  0
  7 10  2  0  0  0
 13 25  2  0  0  0
 14 26  2  0  0  0
 15 27  2  0  0  0
 16 28  2  0  0  0
 17 29  2  0  0  0
M  CHG  2  23  -1  24  -1
M  END
> <rmsd>
0.329744846

$$$$
ZINC16923325


 30 32  0  0  0  0  0  0  0  0999 V2000
   -3.5126   -2.4372    0.8671 C   0  0  0  0  0
   -4.3099   -2.8944   -1.3671 C   0  0  0  0  0
   -3.3333   -1.0960    0.5288 C   0  0  0  0  0
   -4.1306   -1.5531   -1.7055 C   0  0  0  0  0
    2.2271   -1.5072    0.6095 C   0  0  0  0  0
    0.3893   -0.3001    1.6105 C   0  0  0  0  0
    1.2837    0.4096   -0.5187 C   0  0  0  0  0
    1.3165   -1.3414    1.6529 C   0  0  0  0  0
    2.2109   -0.6317   -0.4763 C   0  0  0  0  0
   -4.0009   -3.3364   -0.0808 C   0  0  0  0  0
   -3.6423   -0.6539   -0.7576 C   0  0  0  0  0
    0.3730    0.5754    0.5247 C   0  0  0  0  0
   -3.5807    1.7494   -0.1557 C   0  0  0  0  0
   -3.1644    1.1199   -2.4084 C   0  0  0  0  0
    1.3335   -2.2653    2.7985 C   0  0  0  0  0
    3.1719   -0.8071   -1.5776 C   0  0  0  0  0
   -0.7225    2.5898   -0.5166 C   0  0  0  0  0
   -3.1951    3.0959   -0.7224 C   0  0  0  0  0
   -4.1918   -4.7706    0.2805 C   0  0  0  0  0
   -1.8535    3.5457   -0.1677 C   0  0  0  0  0
   -3.4578    0.7300   -1.1071 N   0  0  0  0  0
   -0.5670    1.6325    0.4819 N   0  0  0  0  0
    0.4821   -2.0899    3.7488 O   0  0  0  0  0
    3.1353    0.0148   -2.5683 O   0  0  0  0  0
   -3.9690    1.6508    1.0061 O   0  0  0  0  0
   -2.9190    0.4357   -3.3909 O   0  0  0  0  0
    2.1994   -3.2186    2.8131 O   0  0  0  0  0
    4.0170   -1.7766   -1.5139 O   0  0  0  0  0
   -0.0737    2.6998   -1.5516 O   0  0  0  0  0
   -3.1071    2.8710   -2.5082 S   0  0  0  0  0
  1 10  1  0  0  0
  2  4  1  0  0  0
  3 11  1  0  0  0
  5  8  1  0  0  0
  6 12  1  0  0  0
  7  9  1  0  0  0
  8 15  1  0  0  0
  9 16  1  0  0  0
 11 21  1  0  0  0
 12 22  1  0  0  0
 13 21  1  0  0  0
 14 21  1  0  0  0
 14 30  1  0  0  0
 15 23  1  0  0  0
 16 24  1  0  0  0
 17 22  1  0  0  0
 18 13  1  0  0  0
 18 20  1  0  0  0
 18 30  1  0  0  0
 19 10  1  0  0  0
 20 17  1  0  0  0
  1  3  2  0  0  0
  2 10  2  0  0  0
  4 11  2  0  0  0
  5  9  2  0  0  0
  6  8  2  0  0  0
  7 12  2  0  0  0
 13 25  2  0  0  0
 14 26  2  0  0  0
 15 27  2  0  0  0
 16 28  2  0  0  0
 17 29  2  0  0  0
M  CHG  2  23  -1  24  -1
M  END
> <rmsd>
0.329825819

$$$$
ZINC16923162


 30 32  0  0  0  0  0  0  0  0999 V2000
   -3.5116   -2.4367    0.8669 C   0  0  0  0  0
   -3.9991   -3.3364   -0.0809 C   0  0  0  0  0
   -3.3334   -1.0953    0.5282 C   0  0  0  0  0
    2.2267   -1.5083    0.6089 C   0  0  0  0  0
    0.3890   -0.3012    1.6100 C   0  0  0  0  0
    1.2836    0.4088   -0.5189 C   0  0  0  0  0
   -4.1300   -1.5536   -1.7061 C   0  0  0  0  0
    1.3160   -1.3426    1.6523 C   0  0  0  0  0
    2.2106   -0.6325   -0.4767 C   0  0  0  0  0
   -4.3083   -2.8950   -1.3674 C   0  0  0  0  0
   -3.6426   -0.6539   -0.7583 C   0  0  0  0  0
    0.3728    0.5746    0.5244 C   0  0  0  0  0
   -3.5806    1.7493   -0.1559 C   0  0  0  0  0
   -3.1643    1.1202   -2.4087 C   0  0  0  0  0
    1.3328   -2.2668    2.7977 C   0  0  0  0  0
    3.1717   -0.8078   -1.5780 C   0  0  0  0  0
   -0.7223    2.5894   -0.5164 C   0  0  0  0  0
   -3.1948    3.0959   -0.7222 C   0  0  0  0  0
   -4.8294   -3.8569   -2.3806 C   0  0  0  0  0
   -1.8532    3.5454   -0.1674 C   0  0  0  0  0
   -3.4578    0.7301   -1.1075 N   0  0  0  0  0
   -0.5670    1.6318    0.4818 N   0  0  0  0  0
    0.4814   -2.0915    3.7480 O   0  0  0  0  0
    3.1353    0.0143   -2.5685 O   0  0  0  0  0
   -3.9690    1.6505    1.0058 O   0  0  0  0  0
   -2.9189    0.4362   -3.3913 O   0  0  0  0  0
    2.1986   -3.2202    2.8122 O   0  0  0  0  0
    4.0167   -1.7775   -1.5145 O   0  0  0  0  0
   -0.0734    2.6995   -1.5514 O   0  0  0  0  0
   -3.1067    2.8713   -2.5081 S   0  0  0  0  0
  1  3  1  0  0  0
  2 10  1  0  0  0
  4  8  1  0  0  0
  5 12  1  0  0  0
  6  9  1  0  0  0
  7 11  1  0  0  0
  8 15  1  0  0  0
  9 16  1  0  0  0
 11 21  1  0  0  0
 12 22  1  0  0  0
 13 21  1  0  0  0
 14 21  1  0  0  0
 14 30  1  0  0  0
 15 23  1  0  0  0
 16 24  1  0  0  0
 17 22  1  0  0  0
 18 13  1  0  0  0
 18 20  1  0  0  0
 18 30  1  0  0  0
 19 10  1  0  0  0
 20 17  1  0  0  0
  1  2  2  0  0  0
  3 11  2  0  0  0
  4  9  2  0  0  0
  5  8  2  0  0  0
  6 12  2  0  0  0
  7 10  2  0  0  0
 13 25  2  0  0  0
 14 26  2  0  0  0
 15 27  2  0  0  0
 16 28  2  0  0  0
 17 29  2  0  0  0
M  CHG  2  23  -1  24  -1
M  END
> <rmsd>
0.329701841

$$$$
ZINC16923006


 30 32  0  0  0  0  0  0  0  0999 V2000
   -3.9789   -3.3417   -0.0742 C   0  0  0  0  0
   -2.7630   -2.9000   -0.5957 C   0  0  0  0  0
    2.2306   -1.5161    0.6061 C   0  0  0  0  0
    1.3253   -1.3584    1.6555 C   0  0  0  0  0
   -5.0280   -2.4406    0.1080 C   0  0  0  0  0
   -2.5960   -1.5574   -0.9349 C   0  0  0  0  0
    1.2749    0.4036   -0.5069 C   0  0  0  0  0
    2.2054   -0.6350   -0.4750 C   0  0  0  0  0
    0.3947   -0.3198    1.6236 C   0  0  0  0  0
   -4.8611   -1.0980   -0.2312 C   0  0  0  0  0
   -3.6452   -0.6563   -0.7526 C   0  0  0  0  0
    0.3696    0.5612    0.5425 C   0  0  0  0  0
   -3.5754    1.7497   -0.1628 C   0  0  0  0  0
   -3.1513    1.1067   -2.4102 C   0  0  0  0  0
    3.1618   -0.8012   -1.5812 C   0  0  0  0  0
   -0.5510   -0.1767    2.7469 C   0  0  0  0  0
   -0.7116    2.5752   -0.5142 C   0  0  0  0  0
   -3.1810    3.0915   -0.7344 C   0  0  0  0  0
   -6.0022   -0.1553   -0.0252 C   0  0  0  0  0
   -1.8399    3.5381   -0.1756 C   0  0  0  0  0
   -3.4526    0.7249   -1.1083 N   0  0  0  0  0
   -0.5654    1.6223    0.4898 N   0  0  0  0  0
    3.1178    0.0253   -2.5681 O   0  0  0  0  0
   -0.2121    0.5564    3.7481 O   0  0  0  0  0
   -3.9696    1.6589    0.9976 O   0  0  0  0  0
   -2.9043    0.4164   -3.3880 O   0  0  0  0  0
    4.0111   -1.7679   -1.5266 O   0  0  0  0  0
   -1.6797   -0.7903    2.6845 O   0  0  0  0  0
   -0.0575    2.6769   -1.5467 O   0  0  0  0  0
   -3.0854    2.8570   -2.5186 S   0  0  0  0  0
  1  2  1  0  0  0
  3  8  1  0  0  0
  4  9  1  0  0  0
  5 10  1  0  0  0
  6 11  1  0  0  0
  7 12  1  0  0  0
  8 15  1  0  0  0
  9 16  1  0  0  0
 11 21  1  0  0  0
 12 22  1  0  0  0
 13 21  1  0  0  0
 14 21  1  0  0  0
 14 30  1  0  0  0
 15 23  1  0  0  0
 16 24  1  0  0  0
 17 22  1  0  0  0
 18 13  1  0  0  0
 18 20  1  0  0  0
 18 30  1  0  0  0
 19 10  1  0  0  0
 20 17  1  0  0  0
  1  5  2  0  0  0
  2  6  2  0  0  0
  3  4  2  0  0  0
  7  8  2  0  0  0
  9 12  2  0  0  0
 10 11  2  0  0  0
 13 25  2  0  0  0
 14 26  2  0  0  0
 15 27  2  0  0  0
 16 28  2  0  0  0
 17 29  2  0  0  0
M  CHG  2  23  -1  24  -1
M  END
> <rmsd>
0.330005944

$$$$
ZINC16923177


 30 32  0  0  0  0  0  0  0  0999 V2000
   -4.2166   -2.9445   -1.5300 C   0  0  0  0  0
    2.1306   -1.1130    0.9957 C   0  0  0  0  0
    1.3630   -0.6969    2.0836 C   0  0  0  0  0
   -3.5695   -3.4204   -0.3896 C   0  0  0  0  0
   -4.2418   -1.5758   -1.7977 C   0  0  0  0  0
    0.9994    0.4892   -0.4152 C   0  0  0  0  0
   -2.9729   -1.1587    0.2156 C   0  0  0  0  0
    1.9488   -0.5199   -0.2537 C   0  0  0  0  0
    0.4137    0.3121    1.9220 C   0  0  0  0  0
   -2.9478   -2.5275    0.4832 C   0  0  0  0  0
   -3.6200   -0.6829   -0.9249 C   0  0  0  0  0
    0.2319    0.9052    0.6727 C   0  0  0  0  0
   -3.6251    1.6783   -0.1723 C   0  0  0  0  0
   -3.7110    1.2163   -2.5011 C   0  0  0  0  0
    2.7597   -0.9584   -1.4008 C   0  0  0  0  0
   -0.3841    0.7325    3.0898 C   0  0  0  0  0
   -1.0187    2.6138   -0.6906 C   0  0  0  0  0
   -3.5066    3.0857   -0.7089 C   0  0  0  0  0
   -2.2561   -3.0361    1.7024 C   0  0  0  0  0
   -2.1153    3.6411   -0.4521 C   0  0  0  0  0
   -3.6467    0.7293   -1.2011 N   0  0  0  0  0
   -0.7250    1.9312    0.4863 N   0  0  0  0  0
    2.5725   -0.3952   -2.5438 O   0  0  0  0  0
    0.0634    1.6828    3.8320 O   0  0  0  0  0
   -3.7116    1.4783    1.0371 O   0  0  0  0  0
   -3.6510    0.6145   -3.5631 O   0  0  0  0  0
    3.6300   -1.8914   -1.2242 O   0  0  0  0  0
   -1.4979    0.1331    3.3233 O   0  0  0  0  0
   -0.5038    2.4560   -1.7926 O   0  0  0  0  0
   -3.8325    2.9668   -2.4773 S   0  0  0  0  0
  1  5  1  0  0  0
  2  8  1  0  0  0
  3  9  1  0  0  0
  4 10  1  0  0  0
  6 12  1  0  0  0
  7 11  1  0  0  0
  8 15  1  0  0  0
  9 16  1  0  0  0
 11 21  1  0  0  0
 12 22  1  0  0  0
 13 21  1  0  0  0
 14 21  1  0  0  0
 14 30  1  0  0  0
 15 23  1  0  0  0
 16 24  1  0  0  0
 17 22  1  0  0  0
 18 13  1  0  0  0
 18 20  1  0  0  0
 18 30  1  0  0  0
 19 10  1  0  0  0
 20 17  1  0  0  0
  1  4  2  0  0  0
  2  3  2  0  0  0
  5 11  2  0  0  0
  6  8  2  0  0  0
  7 10  2  0  0  0
  9 12  2  0  0  0
 13 25  2  0  0  0
 14 26  2  0  0  0
 15 27  2  0  0  0
 16 28  2  0  0  0
 17 29  2  0  0  0
M  CHG  2  23  -1  24  -1
M  END
> <rmsd>
0.568168879

$$$$
ZINC16923338


 30 32  0  0  0  0  0  0  0  0999 V2000
    2.1306   -1.1131    0.9958 C   0  0  0  0  0
    1.3631   -0.6971    2.0837 C   0  0  0  0  0
   -2.9471   -2.5278    0.4827 C   0  0  0  0  0
   -4.2166   -2.9446   -1.5301 C   0  0  0  0  0
   -2.9725   -1.1591    0.2154 C   0  0  0  0  0
   -4.2421   -1.5759   -1.7974 C   0  0  0  0  0
    0.9994    0.4891   -0.4150 C   0  0  0  0  0
    1.9488   -0.5200   -0.2535 C   0  0  0  0  0
    0.4137    0.3120    1.9222 C   0  0  0  0  0
   -3.5692   -3.4206   -0.3900 C   0  0  0  0  0
   -3.6200   -0.6831   -0.9247 C   0  0  0  0  0
    0.2319    0.9051    0.6728 C   0  0  0  0  0
   -3.6250    1.6782   -0.1722 C   0  0  0  0  0
   -3.7110    1.2162   -2.5010 C   0  0  0  0  0
    2.7597   -0.9586   -1.4006 C   0  0  0  0  0
   -0.3840    0.7323    3.0899 C   0  0  0  0  0
   -1.0187    2.6137   -0.6904 C   0  0  0  0  0
   -3.5066    3.0856   -0.7088 C   0  0  0  0  0
   -3.5414   -4.8840   -0.1048 C   0  0  0  0  0
   -2.1153    3.6409   -0.4519 C   0  0  0  0  0
   -3.6467    0.7291   -1.2009 N   0  0  0  0  0
   -0.7250    1.9310    0.4864 N   0  0  0  0  0
    2.5725   -0.3954   -2.5437 O   0  0  0  0  0
    0.0635    1.6826    3.8322 O   0  0  0  0  0
   -3.7115    1.4782    1.0373 O   0  0  0  0  0
   -3.6510    0.6144   -3.5630 O   0  0  0  0  0
    3.6300   -1.8916   -1.2241 O   0  0  0  0  0
   -1.4978    0.1330    3.3235 O   0  0  0  0  0
   -0.5037    2.4558   -1.7924 O   0  0  0  0  0
   -3.8325    2.9667   -2.4771 S   0  0  0  0  0
  1  8  1  0  0  0
  2  9  1  0  0  0
  3 10  1  0  0  0
  4  6  1  0  0  0
  5 11  1  0  0  0
  7 12  1  0  0  0
  8 15  1  0  0  0
  9 16  1  0  0  0
 11 21  1  0  0  0
 12 22  1  0  0  0
 13 21  1  0  0  0
 14 21  1  0  0  0
 14 30  1  0  0  0
 15 23  1  0  0  0
 16 24  1  0  0  0
 17 22  1  0  0  0
 18 13  1  0  0  0
 18 20  1  0  0  0
 18 30  1  0  0  0
 19 10  1  0  0  0
 20 17  1  0  0  0
  1  2  2  0  0  0
  3  5  2  0  0  0
  4 10  2  0  0  0
  6 11  2  0  0  0
  7  8  2  0  0  0
  9 12  2  0  0  0
 13 25  2  0  0  0
 14 26  2  0  0  0
 15 27  2  0  0  0
 16 28  2  0  0  0
 17 29  2  0  0  0
M  CHG  2  23  -1  24  -1
M  END
> <rmsd>
0.568168879

$$$$
ZINC22010122


 28 30  0  0  0  0  0  0  0  0999 V2000
   -2.3474   -1.2595   -0.9432 C   0  0  0  0  0
   -3.1578   -0.4633   -0.1613 C   0  0  0  0  0
   -3.8745   -2.7473   -0.4293 C   0  0  0  0  0
    3.2700    0.4366   -0.1087 C   0  0  0  0  0
    3.8146   -0.0323    1.0391 C   0  0  0  0  0
    1.2625    1.7432   -0.9477 C   0  0  0  0  0
   -3.0230    0.9713    0.2090 C   0  0  0  0  0
    3.8108   -0.0314   -1.4548 C   0  0  0  0  0
   -1.8428    1.7493   -0.3109 C   0  0  0  0  0
    3.2266    0.2428    2.4213 C   0  0  0  0  0
    0.4915    2.3555    0.2565 C   0  0  0  0  0
    1.7352    1.9721    1.0876 C   0  0  0  0  0
    7.2330   -1.0180    1.9627 C   0  0  0  0  0
   -4.5909    3.4439    2.0419 C   0  0  0  0  0
    5.0488   -0.8982    1.1036 C   0  0  0  0  0
   -2.7565   -2.5696   -1.0977 N   0  0  0  0  0
   -3.9016    1.5473    0.9729 N   0  0  0  0  0
    2.1983    1.2707   -0.0961 N   0  0  0  0  0
   -4.5529   -3.9243   -0.3710 N   0  0  0  0  0
   -0.7757    1.6838    0.5410 N   0  0  0  0  0
    3.2499   -1.0586   -1.9179 O   0  0  0  0  0
    1.0860    1.6386   -2.1389 O   0  0  0  0  0
    4.7445    0.6732   -1.9195 O   0  0  0  0  0
   -1.9574    2.3229   -1.3821 O   0  0  0  0  0
    6.0406   -0.2444    1.8673 O   0  0  0  0  0
   -3.5865    2.8934    1.2038 O   0  0  0  0  0
   -4.4902   -1.3813    0.4073 S   0  0  0  0  0
    1.4782    0.7665    2.4093 S   0  0  0  0  0
  1 16  1  0  0  0
  2  7  1  0  0  0
  2 27  1  0  0  0
  3 19  1  0  0  0
  3 27  1  0  0  0
  4  8  1  0  0  0
  4 18  1  0  0  0
  6 18  1  0  0  0
  7  9  1  0  0  0
  8 21  1  0  0  0
  9 20  1  0  0  0
 10  5  1  0  0  0
 10 28  1  0  0  0
 11  6  1  0  0  0
 11 12  1  0  0  0
 11 20  1  0  0  0
 12 18  1  0  0  0
 12 28  1  0  0  0
 13 25  1  0  0  0
 14 26  1  0  0  0
 15  5  1  0  0  0
 15 25  1  0  0  0
 17 26  1  0  0  0
  1  2  2  0  0  0
  3 16  2  0  0  0
  4  5  2  0  0  0
  6 22  2  0  0  0
  7 17  2  0  0  0
  8 23  2  0  0  0
  9 24  2  0  0  0
M  CHG  1  21  -1
M  END
> <rmsd>
0.360706002

$$$$
ZINC22010122


 28 30  0  0  0  0  0  0  0  0999 V2000
   -2.6781   -1.3589   -0.8511 C   0  0  0  0  0
   -3.3836   -0.4632   -0.0753 C   0  0  0  0  0
   -4.3118   -2.6810   -0.2242 C   0  0  0  0  0
    3.0962   -0.1507   -0.2808 C   0  0  0  0  0
    3.6399   -0.6233    0.8660 C   0  0  0  0  0
    1.1835    1.3004   -1.1034 C   0  0  0  0  0
   -3.1069    0.9662    0.2307 C   0  0  0  0  0
    3.5415   -0.7167   -1.6242 C   0  0  0  0  0
   -1.8824    1.6133   -0.3611 C   0  0  0  0  0
    3.1317   -0.2437    2.2551 C   0  0  0  0  0
    0.5167    2.0256    0.1003 C   0  0  0  0  0
    1.7517    1.5624    0.9033 C   0  0  0  0  0
    6.9888   -1.8803    1.7113 C   0  0  0  0  0
   -4.3763    3.6390    2.0130 C   0  0  0  0  0
    4.7931   -1.5949    0.9236 C   0  0  0  0  0
   -3.2085   -2.6313   -0.9373 N   0  0  0  0  0
   -3.9008    1.6483    1.0000 N   0  0  0  0  0
    2.1049    0.7773   -0.2657 N   0  0  0  0  0
   -5.0901   -3.7883   -0.0940 N   0  0  0  0  0
   -0.7939    1.4833    0.4556 N   0  0  0  0  0
    2.8737   -1.7054   -2.0251 O   0  0  0  0  0
    0.9533    1.1672   -2.2825 O   0  0  0  0  0
    4.5163   -0.1181   -2.1494 O   0  0  0  0  0
   -1.9857    2.1538   -1.4504 O   0  0  0  0  0
    5.8677   -1.0056    1.6252 O   0  0  0  0  0
   -3.4578    2.9680    1.1643 O   0  0  0  0  0
   -4.7703   -1.2338    0.5761 S   0  0  0  0  0
    1.4381    0.4362    2.2815 S   0  0  0  0  0
  1 16  1  0  0  0
  2  7  1  0  0  0
  2 27  1  0  0  0
  3 19  1  0  0  0
  3 27  1  0  0  0
  4  8  1  0  0  0
  4 18  1  0  0  0
  6 18  1  0  0  0
  7  9  1  0  0  0
  8 21  1  0  0  0
  9 20  1  0  0  0
 10  5  1  0  0  0
 10 28  1  0  0  0
 11  6  1  0  0  0
 11 12  1  0  0  0
 11 20  1  0  0  0
 12 18  1  0  0  0
 12 28  1  0  0  0
 13 25  1  0  0  0
 14 26  1  0  0  0
 15  5  1  0  0  0
 15 25  1  0  0  0
 17 26  1  0  0  0
  1  2  2  0  0  0
  3 16  2  0  0  0
  4  5  2  0  0  0
  6 22  2  0  0  0
  7 17  2  0  0  0
  8 23  2  0  0  0
  9 24  2  0  0  0
M  CHG  1  21  -1
M  END
> <rmsd>
0.0815137923

$$$$
ZINC03830453


 28 30  0  0  0  0  0  0  0  0999 V2000
   -4.2082   -1.2864    0.2901 C   0  0  0  0  0
   -3.1731   -0.4828   -0.1399 C   0  0  0  0  0
   -2.5626   -2.3532   -1.1087 C   0  0  0  0  0
    3.2532    0.4283   -0.1205 C   0  0  0  0  0
    3.8031   -0.0292    1.0295 C   0  0  0  0  0
    1.2403    1.7238   -0.9636 C   0  0  0  0  0
   -3.0393    0.9553    0.2168 C   0  0  0  0  0
    3.7897   -0.0511   -1.4642 C   0  0  0  0  0
   -1.8625    1.7306   -0.3149 C   0  0  0  0  0
    3.2199    0.2576    2.4114 C   0  0  0  0  0
    0.4729    2.3459    0.2380 C   0  0  0  0  0
    1.7205    1.9722    1.0677 C   0  0  0  0  0
    7.2267   -1.0006    1.9488 C   0  0  0  0  0
   -4.6044    3.4420    2.0330 C   0  0  0  0  0
    5.0390   -0.8924    1.0971 C   0  0  0  0  0
   -2.2284   -1.0929   -0.9417 N   0  0  0  0  0
   -3.9160    1.5369    0.9788 N   0  0  0  0  0
    2.1802    1.2607   -0.1113 N   0  0  0  0  0
   -1.8480   -3.2442   -1.8458 N   0  0  0  0  0
   -0.7921    1.6747    0.5335 N   0  0  0  0  0
    3.2287   -1.0835   -1.9158 O   0  0  0  0  0
    1.0594    1.6080   -2.1530 O   0  0  0  0  0
    4.7204    0.6508   -1.9390 O   0  0  0  0  0
   -1.9823    2.2941   -1.3908 O   0  0  0  0  0
    6.0327   -0.2299    1.8509 O   0  0  0  0  0
   -3.6023    2.8856    1.1961 O   0  0  0  0  0
   -4.0014   -2.8719   -0.3302 S   0  0  0  0  0
    1.4707    0.7783    2.4013 S   0  0  0  0  0
  1 27  1  0  0  0
  2  7  1  0  0  0
  2 16  1  0  0  0
  3 19  1  0  0  0
  3 27  1  0  0  0
  4  8  1  0  0  0
  4 18  1  0  0  0
  6 18  1  0  0  0
  7  9  1  0  0  0
  8 21  1  0  0  0
  9 20  1  0  0  0
 10  5  1  0  0  0
 10 28  1  0  0  0
 11  6  1  0  0  0
 11 12  1  0  0  0
 11 20  1  0  0  0
 12 18  1  0  0  0
 12 28  1  0  0  0
 13 25  1  0  0  0
 14 26  1  0  0  0
 15  5  1  0  0  0
 15 25  1  0  0  0
 17 26  1  0  0  0
  1  2  2  0  0  0
  3 16  2  0  0  0
  4  5  2  0  0  0
  6 22  2  0  0  0
  7 17  2  0  0  0
  8 23  2  0  0  0
  9 24  2  0  0  0
M  CHG  1  21  -1
M  END
> <rmsd>
0.402820975

$$$$
ZINC03830453


 28 30  0  0  0  0  0  0  0  0999 V2000
   -4.4869   -1.1677    0.4470 C   0  0  0  0  0
   -3.4003   -0.4798   -0.0509 C   0  0  0  0  0
   -2.9975   -2.4347   -0.9598 C   0  0  0  0  0
    3.0784   -0.1617   -0.2854 C   0  0  0  0  0
    3.6271   -0.6225    0.8638 C   0  0  0  0  0
    1.1606    1.2790   -1.1145 C   0  0  0  0  0
   -3.1240    0.9528    0.2400 C   0  0  0  0  0
    3.5190   -0.7404   -1.6249 C   0  0  0  0  0
   -1.9026    1.5956   -0.3630 C   0  0  0  0  0
    3.1241   -0.2298    2.2511 C   0  0  0  0  0
    0.4978    2.0152    0.0847 C   0  0  0  0  0
    1.7365    1.5613    0.8872 C   0  0  0  0  0
    6.9809   -1.8672    1.7081 C   0  0  0  0  0
   -4.3896    3.6415    2.0010 C   0  0  0  0  0
    4.7818   -1.5921    0.9263 C   0  0  0  0  0
   -2.5449   -1.2047   -0.8575 N   0  0  0  0  0
   -3.9157    1.6416    1.0057 N   0  0  0  0  0
    2.0860    0.7652   -0.2754 N   0  0  0  0  0
   -2.3942   -3.4155   -1.6821 N   0  0  0  0  0
   -0.8108    1.4749    0.4506 N   0  0  0  0  0
    2.8507   -1.7338   -2.0134 O   0  0  0  0  0
    0.9259    1.1340   -2.2913 O   0  0  0  0  0
    4.4909   -0.1458   -2.1599 O   0  0  0  0  0
   -2.0110    2.1253   -1.4572 O   0  0  0  0  0
    5.8585   -0.9947    1.6178 O   0  0  0  0  0
   -3.4736    2.9633    1.1552 O   0  0  0  0  0
   -4.4473   -2.7884   -0.1123 S   0  0  0  0  0
    1.4298    0.4483    2.2777 S   0  0  0  0  0
  1 27  1  0  0  0
  2  7  1  0  0  0
  2 16  1  0  0  0
  3 19  1  0  0  0
  3 27  1  0  0  0
  4  8  1  0  0  0
  4 18  1  0  0  0
  6 18  1  0  0  0
  7  9  1  0  0  0
  8 21  1  0  0  0
  9 20  1  0  0  0
 10  5  1  0  0  0
 10 28  1  0  0  0
 11  6  1  0  0  0
 11 12  1  0  0  0
 11 20  1  0  0  0
 12 18  1  0  0  0
 12 28  1  0  0  0
 13 25  1  0  0  0
 14 26  1  0  0  0
 15  5  1  0  0  0
 15 25  1  0  0  0
 17 26  1  0  0  0
  1  2  2  0  0  0
  3 16  2  0  0  0
  4  5  2  0  0  0
  6 22  2  0  0  0
  7 17  2  0  0  0
  8 23  2  0  0  0
  9 24  2  0  0  0
M  CHG  1  21  -1
M  END
> <rmsd>
0.102891922

$$$$
ZINC22010122


 28 30  0  0  0  0  0  0  0  0999 V2000
   -4.1488   -1.3777    0.2168 C   0  0  0  0  0
   -3.1772   -0.4641   -0.1348 C   0  0  0  0  0
   -2.8914   -2.6896   -1.0110 C   0  0  0  0  0
    3.2522    0.4251   -0.1189 C   0  0  0  0  0
    3.8013   -0.0350    1.0304 C   0  0  0  0  0
    1.2432    1.7279   -0.9599 C   0  0  0  0  0
   -3.0383    0.9733    0.2226 C   0  0  0  0  0
    3.7862   -0.0553   -1.4633 C   0  0  0  0  0
   -1.8592    1.7449   -0.3093 C   0  0  0  0  0
    3.2200    0.2529    2.4129 C   0  0  0  0  0
    0.4787    2.3519    0.2424 C   0  0  0  0  0
    1.7255    1.9734    1.0711 C   0  0  0  0  0
    7.2221   -1.0186    1.9470 C   0  0  0  0  0
   -4.5937    3.4642    2.0413 C   0  0  0  0  0
    5.0343   -0.9024    1.0967 C   0  0  0  0  0
   -3.9868   -2.6542   -0.2850 N   0  0  0  0  0
   -3.9125    1.5573    0.9855 N   0  0  0  0  0
    2.1821    1.2611   -0.1086 N   0  0  0  0  0
   -2.4321   -3.7982   -1.6504 N   0  0  0  0  0
   -0.7884    1.6848    0.5384 N   0  0  0  0  0
    3.2214   -1.0855   -1.9151 O   0  0  0  0  0
    1.0611    1.6135   -2.1494 O   0  0  0  0  0
    4.7190    0.6437   -1.9383 O   0  0  0  0  0
   -1.9777    2.3094   -1.3848 O   0  0  0  0  0
    6.0306   -0.2438    1.8503 O   0  0  0  0  0
   -3.5940    2.9049    1.2035 O   0  0  0  0  0
   -2.0074   -1.2239   -1.1326 S   0  0  0  0  0
    1.4725    0.7796    2.4042 S   0  0  0  0  0
  1 16  1  0  0  0
  2  7  1  0  0  0
  2 27  1  0  0  0
  3 19  1  0  0  0
  3 27  1  0  0  0
  4  8  1  0  0  0
  4 18  1  0  0  0
  6 18  1  0  0  0
  7  9  1  0  0  0
  8 21  1  0  0  0
  9 20  1  0  0  0
 10  5  1  0  0  0
 10 28  1  0  0  0
 11  6  1  0  0  0
 11 12  1  0  0  0
 11 20  1  0  0  0
 12 18  1  0  0  0
 12 28  1  0  0  0
 13 25  1  0  0  0
 14 26  1  0  0  0
 15  5  1  0  0  0
 15 25  1  0  0  0
 17 26  1  0  0  0
  1  2  2  0  0  0
  3 16  2  0  0  0
  4  5  2  0  0  0
  6 22  2  0  0  0
  7 17  2  0  0  0
  8 23  2  0  0  0
  9 24  2  0  0  0
M  CHG  1  21  -1
M  END
> <rmsd>
0.411117733

$$$$
ZINC22010122


 28 30  0  0  0  0  0  0  0  0999 V2000
   -4.4385   -1.2675    0.3745 C   0  0  0  0  0
   -3.4025   -0.4607   -0.0473 C   0  0  0  0  0
   -3.3507   -2.7350   -0.8390 C   0  0  0  0  0
    3.0770   -0.1625   -0.2839 C   0  0  0  0  0
    3.6248   -0.6262    0.8646 C   0  0  0  0  0
    1.1634    1.2851   -1.1107 C   0  0  0  0  0
   -3.1217    0.9707    0.2451 C   0  0  0  0  0
    3.5153   -0.7410   -1.6243 C   0  0  0  0  0
   -1.8986    1.6103   -0.3577 C   0  0  0  0  0
    3.1235   -0.2335    2.2525 C   0  0  0  0  0
    0.5033    2.0220    0.0896 C   0  0  0  0  0
    1.7410    1.5634    0.8911 C   0  0  0  0  0
    6.9750   -1.8823    1.7061 C   0  0  0  0  0
   -4.3782    3.6613    2.0096 C   0  0  0  0  0
    4.7764   -1.5995    0.9256 C   0  0  0  0  0
   -4.4107   -2.5718   -0.0789 N   0  0  0  0  0
   -3.9109    1.6610    1.0119 N   0  0  0  0  0
    2.0875    0.7675   -0.2725 N   0  0  0  0  0
   -3.0171   -3.9047   -1.4467 N   0  0  0  0  0
   -0.8068    1.4853    0.4554 N   0  0  0  0  0
    2.8438   -1.7319   -2.0136 O   0  0  0  0  0
    0.9277    1.1421   -2.2876 O   0  0  0  0  0
    4.4889   -0.1489   -2.1589 O   0  0  0  0  0
   -2.0057    2.1416   -1.4512 O   0  0  0  0  0
    5.8552   -1.0062    1.6173 O   0  0  0  0  0
   -3.4647    2.9812    1.1627 O   0  0  0  0  0
   -2.3436   -1.3619   -1.0511 S   0  0  0  0  0
    1.4313    0.4498    2.2805 S   0  0  0  0  0
  1 16  1  0  0  0
  2  7  1  0  0  0
  2 27  1  0  0  0
  3 19  1  0  0  0
  3 27  1  0  0  0
  4  8  1  0  0  0
  4 18  1  0  0  0
  6 18  1  0  0  0
  7  9  1  0  0  0
  8 21  1  0  0  0
  9 20  1  0  0  0
 10  5  1  0  0  0
 10 28  1  0  0  0
 11  6  1  0  0  0
 11 12  1  0  0  0
 11 20  1  0  0  0
 12 18  1  0  0  0
 12 28  1  0  0  0
 13 25  1  0  0  0
 14 26  1  0  0  0
 15  5  1  0  0  0
 15 25  1  0  0  0
 17 26  1  0  0  0
  1  2  2  0  0  0
  3 16  2  0  0  0
  4  5  2  0  0  0
  6 22  2  0  0  0
  7 17  2  0  0  0
  8 23  2  0  0  0
  9 24  2  0  0  0
M  CHG  1  21  -1
M  END
> <rmsd>
0.120315932

$$$$
ZINC22010117


 28 30  0  0  0  0  0  0  0  0999 V2000
   -2.6727   -1.2876   -0.9153 C   0  0  0  0  0
   -3.3869   -0.4399   -0.0947 C   0  0  0  0  0
   -4.2507   -2.6795   -0.2963 C   0  0  0  0  0
    3.5042    0.8471   -0.5661 C   0  0  0  0  0
    4.4277    1.0116    0.4104 C   0  0  0  0  0
    1.1235    1.4876   -1.1493 C   0  0  0  0  0
   -3.1464    0.9867    0.2523 C   0  0  0  0  0
    3.9101    0.2589   -1.9120 C   0  0  0  0  0
   -1.9562    1.6904   -0.3448 C   0  0  0  0  0
    4.1375    1.7229    1.7320 C   0  0  0  0  0
    0.4394    2.1616    0.0767 C   0  0  0  0  0
    1.6410    1.6201    0.8822 C   0  0  0  0  0
    7.4184   -0.9051    1.3552 C   0  0  0  0  0
   -4.4545    3.5596    2.1498 C   0  0  0  0  0
    5.8499    0.5130    0.3297 C   0  0  0  0  0
   -3.1663   -2.5724   -1.0318 N   0  0  0  0  0
   -3.9426    1.6185    1.0611 N   0  0  0  0  0
    2.2258    1.2749   -0.3997 N   0  0  0  0  0
   -4.9918   -3.8140   -0.1857 N   0  0  0  0  0
   -0.8444    1.5683    0.4424 N   0  0  0  0  0
    3.8238   -0.9948   -1.9853 O   0  0  0  0  0
    0.8473    1.2902   -2.3092 O   0  0  0  0  0
    4.2763    1.1069   -2.7673 O   0  0  0  0  0
   -2.1012    2.2625   -1.4131 O   0  0  0  0  0
    6.0868   -0.3995    1.3810 O   0  0  0  0  0
   -3.5361    2.9453    1.2592 O   0  0  0  0  0
   -4.7342   -1.2740    0.5614 S   0  0  0  0  0
    2.6974    2.8442    1.6844 S   0  0  0  0  0
  1 16  1  0  0  0
  2  7  1  0  0  0
  2 27  1  0  0  0
  3 19  1  0  0  0
  3 27  1  0  0  0
  4  8  1  0  0  0
  4 18  1  0  0  0
  6 18  1  0  0  0
  7  9  1  0  0  0
  8 21  1  0  0  0
  9 20  1  0  0  0
 10  5  1  0  0  0
 10 28  1  0  0  0
 11  6  1  0  0  0
 11 12  1  0  0  0
 11 20  1  0  0  0
 12 18  1  0  0  0
 12 28  1  0  0  0
 13 25  1  0  0  0
 14 26  1  0  0  0
 15  5  1  0  0  0
 15 25  1  0  0  0
 17 26  1  0  0  0
  1  2  2  0  0  0
  3 16  2  0  0  0
  4  5  2  0  0  0
  6 22  2  0  0  0
  7 17  2  0  0  0
  8 23  2  0  0  0
  9 24  2  0  0  0
M  CHG  1  21  -1
M  END
> <rmsd>
0.173394501

$$$$
ZINC22010117


 28 30  0  0  0  0  0  0  0  0999 V2000
   -2.8728   -1.4271   -0.7447 C   0  0  0  0  0
   -3.5208   -0.4604   -0.0047 C   0  0  0  0  0
   -4.5805   -2.6228   -0.0630 C   0  0  0  0  0
    3.4654    0.1687   -0.4084 C   0  0  0  0  0
    4.3837    0.3225    0.5747 C   0  0  0  0  0
    1.1625    0.9736   -1.0918 C   0  0  0  0  0
   -3.1578    0.9609    0.2431 C   0  0  0  0  0
    3.8386   -0.5520   -1.6983 C   0  0  0  0  0
   -1.8991    1.5093   -0.3758 C   0  0  0  0  0
    4.1373    1.1533    1.8340 C   0  0  0  0  0
    0.5220    1.7953    0.0657 C   0  0  0  0  0
    1.6561    1.2103    0.9362 C   0  0  0  0  0
    7.1724   -1.7773    1.7254 C   0  0  0  0  0
   -4.2588    3.7744    1.9177 C   0  0  0  0  0
    5.7561   -0.3055    0.5634 C   0  0  0  0  0
   -3.4788   -2.6679   -0.7789 N   0  0  0  0  0
   -3.9068    1.7197    0.9852 N   0  0  0  0  0
    2.2284    0.7199   -0.3033 N   0  0  0  0  0
   -5.4230   -3.6754    0.1126 N   0  0  0  0  0
   -0.8160    1.3477    0.4438 N   0  0  0  0  0
    3.6403   -1.7950   -1.6822 O   0  0  0  0  0
    0.8888    0.7157   -2.2403 O   0  0  0  0  0
    4.2942    0.1939   -2.6043 O   0  0  0  0  0
   -1.9739    2.0109   -1.4859 O   0  0  0  0  0
    5.8919   -1.1546    1.6835 O   0  0  0  0  0
   -3.3852    3.0160    1.0957 O   0  0  0  0  0
   -4.9488   -1.1199    0.6789 S   0  0  0  0  0
    2.8057    2.3918    1.6716 S   0  0  0  0  0
  1 16  1  0  0  0
  2  7  1  0  0  0
  2 27  1  0  0  0
  3 19  1  0  0  0
  3 27  1  0  0  0
  4  8  1  0  0  0
  4 18  1  0  0  0
  6 18  1  0  0  0
  7  9  1  0  0  0
  8 21  1  0  0  0
  9 20  1  0  0  0
 10  5  1  0  0  0
 10 28  1  0  0  0
 11  6  1  0  0  0
 11 12  1  0  0  0
 11 20  1  0  0  0
 12 18  1  0  0  0
 12 28  1  0  0  0
 13 25  1  0  0  0
 14 26  1  0  0  0
 15  5  1  0  0  0
 15 25  1  0  0  0
 17 26  1  0  0  0
  1  2  2  0  0  0
  3 16  2  0  0  0
  4  5  2  0  0  0
  6 22  2  0  0  0
  7 17  2  0  0  0
  8 23  2  0  0  0
  9 24  2  0  0  0
M  CHG  1  21  -1
M  END
> <rmsd>
0.207880557

$$$$
ZINC03830453


 28 30  0  0  0  0  0  0  0  0999 V2000
   -2.2555   -1.1550   -0.9593 C   0  0  0  0  0
   -3.1566   -0.4826   -0.1605 C   0  0  0  0  0
   -4.1210   -2.4523   -0.1597 C   0  0  0  0  0
    3.2682    0.4388   -0.1124 C   0  0  0  0  0
    3.8148   -0.0253    1.0365 C   0  0  0  0  0
    1.2561    1.7365   -0.9542 C   0  0  0  0  0
   -3.0263    0.9534    0.2060 C   0  0  0  0  0
    3.8102   -0.0310   -1.4574 C   0  0  0  0  0
   -1.8490    1.7340   -0.3164 C   0  0  0  0  0
    3.2263    0.2515    2.4181 C   0  0  0  0  0
    0.4835    2.3494    0.2486 C   0  0  0  0  0
    1.7288    1.9724    1.0803 C   0  0  0  0  0
    7.2367   -0.9972    1.9615 C   0  0  0  0  0
   -4.6019    3.4256    2.0328 C   0  0  0  0  0
    5.0519   -0.8869    1.1028 C   0  0  0  0  0
   -4.2271   -1.2247    0.2987 N   0  0  0  0  0
   -3.9067    1.5285    0.9686 N   0  0  0  0  0
    2.1938    1.2693   -0.1016 N   0  0  0  0  0
   -5.0102   -3.4469    0.1010 N   0  0  0  0  0
   -0.7814    1.6743    0.5353 N   0  0  0  0  0
    3.2525   -1.0613   -1.9176 O   0  0  0  0  0
    1.0796    1.6281   -2.1450 O   0  0  0  0  0
    4.7414    0.6755   -1.9243 O   0  0  0  0  0
   -1.9658    2.3043   -1.3891 O   0  0  0  0  0
    6.0418   -0.2278    1.8644 O   0  0  0  0  0
   -3.5959    2.8763    1.1959 O   0  0  0  0  0
   -2.7581   -2.7837   -1.1485 S   0  0  0  0  0
    1.4762    0.7694    2.4053 S   0  0  0  0  0
  1 27  1  0  0  0
  2  7  1  0  0  0
  2 16  1  0  0  0
  3 19  1  0  0  0
  3 27  1  0  0  0
  4  8  1  0  0  0
  4 18  1  0  0  0
  6 18  1  0  0  0
  7  9  1  0  0  0
  8 21  1  0  0  0
  9 20  1  0  0  0
 10  5  1  0  0  0
 10 28  1  0  0  0
 11  6  1  0  0  0
 11 12  1  0  0  0
 11 20  1  0  0  0
 12 18  1  0  0  0
 12 28  1  0  0  0
 13 25  1  0  0  0
 14 26  1  0  0  0
 15  5  1  0  0  0
 15 25  1  0  0  0
 17 26  1  0  0  0
  1  2  2  0  0  0
  3 16  2  0  0  0
  4  5  2  0  0  0
  6 22  2  0  0  0
  7 17  2  0  0  0
  8 23  2  0  0  0
  9 24  2  0  0  0
M  CHG  1  21  -1
M  END
> <rmsd>
0.360010535

$$$$
ZINC03830453


 28 30  0  0  0  0  0  0  0  0999 V2000
   -2.5781   -1.2646   -0.8730 C   0  0  0  0  0
   -3.3841   -0.4823   -0.0727 C   0  0  0  0  0
   -4.5212   -2.3541    0.0435 C   0  0  0  0  0
    3.0947   -0.1512   -0.2828 C   0  0  0  0  0
    3.6404   -0.6186    0.8652 C   0  0  0  0  0
    1.1772    1.2915   -1.1090 C   0  0  0  0  0
   -3.1114    0.9488    0.2286 C   0  0  0  0  0
    3.5410   -0.7202   -1.6247 C   0  0  0  0  0
   -1.8892    1.5977   -0.3660 C   0  0  0  0  0
    3.1318   -0.2359    2.2533 C   0  0  0  0  0
    0.5089    2.0186    0.0928 C   0  0  0  0  0
    1.7457    1.5617    0.8965 C   0  0  0  0  0
    6.9935   -1.8628    1.7127 C   0  0  0  0  0
   -4.3879    3.6235    2.0029 C   0  0  0  0  0
    4.7965   -1.5865    0.9253 C   0  0  0  0  0
   -4.4990   -1.1052    0.4534 N   0  0  0  0  0
   -3.9070    1.6310    0.9961 N   0  0  0  0  0
    2.1006    0.7739   -0.2701 N   0  0  0  0  0
   -5.4858   -3.2524    0.3759 N   0  0  0  0  0
   -0.7999    1.4735    0.4506 N   0  0  0  0  0
    2.8758   -1.7122   -2.0220 O   0  0  0  0  0
    0.9467    1.1539   -2.2875 O   0  0  0  0  0
    4.5136   -0.1204   -2.1523 O   0  0  0  0  0
   -1.9947    2.1344   -1.4570 O   0  0  0  0  0
    5.8698   -0.9917    1.6244 O   0  0  0  0  0
   -3.4678    2.9526    1.1559 O   0  0  0  0  0
   -3.2320   -2.8467   -0.9764 S   0  0  0  0  0
    1.4363    0.4390    2.2786 S   0  0  0  0  0
  1 27  1  0  0  0
  2  7  1  0  0  0
  2 16  1  0  0  0
  3 19  1  0  0  0
  3 27  1  0  0  0
  4  8  1  0  0  0
  4 18  1  0  0  0
  6 18  1  0  0  0
  7  9  1  0  0  0
  8 21  1  0  0  0
  9 20  1  0  0  0
 10  5  1  0  0  0
 10 28  1  0  0  0
 11  6  1  0  0  0
 11 12  1  0  0  0
 11 20  1  0  0  0
 12 18  1  0  0  0
 12 28  1  0  0  0
 13 25  1  0  0  0
 14 26  1  0  0  0
 15  5  1  0  0  0
 15 25  1  0  0  0
 17 26  1  0  0  0
  1  2  2  0  0  0
  3 16  2  0  0  0
  4  5  2  0  0  0
  6 22  2  0  0  0
  7 17  2  0  0  0
  8 23  2  0  0  0
  9 24  2  0  0  0
M  CHG  1  21  -1
M  END
> <rmsd>
0.0605340376

$$$$
ZINC22010117


 28 30  0  0  0  0  0  0  0  0999 V2000
   -4.6217   -1.1805    0.4767 C   0  0  0  0  0
   -3.5404   -0.4549    0.0224 C   0  0  0  0  0
   -3.6274   -2.7582   -0.6776 C   0  0  0  0  0
    3.4454    0.1555   -0.4156 C   0  0  0  0  0
    4.3680    0.3155    0.5624 C   0  0  0  0  0
    1.1413    0.9597   -1.0960 C   0  0  0  0  0
   -3.1734    0.9676    0.2568 C   0  0  0  0  0
    3.8116   -0.5766   -1.7009 C   0  0  0  0  0
   -1.9161    1.5081   -0.3718 C   0  0  0  0  0
    4.1287    1.1573    1.8158 C   0  0  0  0  0
    0.5075    1.7924    0.0573 C   0  0  0  0  0
    1.6439    1.2122    0.9278 C   0  0  0  0  0
    7.1570   -1.7808    1.7189 C   0  0  0  0  0
   -4.2613    3.7973    1.9126 C   0  0  0  0  0
    5.7390   -0.3155    0.5507 C   0  0  0  0  0
   -4.6734   -2.5013    0.0760 N   0  0  0  0  0
   -3.9176    1.7342    0.9957 N   0  0  0  0  0
    2.2100    0.7103   -0.3099 N   0  0  0  0  0
   -3.3662   -3.9691   -1.2380 N   0  0  0  0  0
   -0.8300    1.3509    0.4446 N   0  0  0  0  0
    3.6107   -1.8190   -1.6737 O   0  0  0  0  0
    0.8623    0.6930   -2.2412 O   0  0  0  0  0
    4.2651    0.1607   -2.6149 O   0  0  0  0  0
   -1.9944    2.0006   -1.4857 O   0  0  0  0  0
    5.8777   -1.1557    1.6772 O   0  0  0  0  0
   -3.3927    3.0302    1.0932 O   0  0  0  0  0
   -2.5403   -1.4575   -0.9451 S   0  0  0  0  0
    2.7991    2.3973    1.6486 S   0  0  0  0  0
  1 16  1  0  0  0
  2  7  1  0  0  0
  2 27  1  0  0  0
  3 19  1  0  0  0
  3 27  1  0  0  0
  4  8  1  0  0  0
  4 18  1  0  0  0
  6 18  1  0  0  0
  7  9  1  0  0  0
  8 21  1  0  0  0
  9 20  1  0  0  0
 10  5  1  0  0  0
 10 28  1  0  0  0
 11  6  1  0  0  0
 11 12  1  0  0  0
 11 20  1  0  0  0
 12 18  1  0  0  0
 12 28  1  0  0  0
 13 25  1  0  0  0
 14 26  1  0  0  0
 15  5  1  0  0  0
 15 25  1  0  0  0
 17 26  1  0  0  0
  1  2  2  0  0  0
  3 16  2  0  0  0
  4  5  2  0  0  0
  6 22  2  0  0  0
  7 17  2  0  0  0
  8 23  2  0  0  0
  9 24  2  0  0  0
M  CHG  1  21  -1
M  END
> <rmsd>
0.17660901

$$$$
ZINC22010117


 28 30  0  0  0  0  0  0  0  0999 V2000
   -4.4063   -1.2915    0.3537 C   0  0  0  0  0
   -3.4058   -0.4398   -0.0653 C   0  0  0  0  0
   -3.3032   -2.6853   -0.9311 C   0  0  0  0  0
    3.4845    0.8344   -0.5815 C   0  0  0  0  0
    4.4127    1.0072    0.3890 C   0  0  0  0  0
    1.1018    1.4720   -1.1598 C   0  0  0  0  0
   -3.1620    0.9898    0.2666 C   0  0  0  0  0
    3.8833    0.2326   -1.9235 C   0  0  0  0  0
   -1.9739    1.6862   -0.3429 C   0  0  0  0  0
    4.1296    1.7318    1.7049 C   0  0  0  0  0
    0.4242    2.1587    0.0627 C   0  0  0  0  0
    1.6289    1.6236    0.8678 C   0  0  0  0  0
    7.4056   -0.9037    1.3383 C   0  0  0  0  0
   -4.4583    3.5827    2.1451 C   0  0  0  0  0
    5.8340    0.5062    0.3064 C   0  0  0  0  0
   -4.3493   -2.5794   -0.1421 N   0  0  0  0  0
   -3.9537    1.6305    1.0730 N   0  0  0  0  0
    2.2073    1.2652   -0.4134 N   0  0  0  0  0
   -2.9483   -3.8241   -1.5836 N   0  0  0  0  0
   -0.8585    1.5705    0.4402 N   0  0  0  0  0
    3.7953   -1.0217   -1.9842 O   0  0  0  0  0
    0.8199    1.2636   -2.3164 O   0  0  0  0  0
    4.2465    1.0717   -2.7888 O   0  0  0  0  0
   -2.1232    2.2481   -1.4160 O   0  0  0  0  0
    6.0748   -0.3963    1.3655 O   0  0  0  0  0
   -3.5448    2.9586    1.2562 O   0  0  0  0  0
   -2.3438   -1.2751   -1.1216 S   0  0  0  0  0
    2.6906    2.8543    1.6531 S   0  0  0  0  0
  1 16  1  0  0  0
  2  7  1  0  0  0
  2 27  1  0  0  0
  3 19  1  0  0  0
  3 27  1  0  0  0
  4  8  1  0  0  0
  4 18  1  0  0  0
  6 18  1  0  0  0
  7  9  1  0  0  0
  8 21  1  0  0  0
  9 20  1  0  0  0
 10  5  1  0  0  0
 10 28  1  0  0  0
 11  6  1  0  0  0
 11 12  1  0  0  0
 11 20  1  0  0  0
 12 18  1  0  0  0
 12 28  1  0  0  0
 13 25  1  0  0  0
 14 26  1  0  0  0
 15  5  1  0  0  0
 15 25  1  0  0  0
 17 26  1  0  0  0
  1  2  2  0  0  0
  3 16  2  0  0  0
  4  5  2  0  0  0
  6 22  2  0  0  0
  7 17  2  0  0  0
  8 23  2  0  0  0
  9 24  2  0  0  0
M  CHG  1  21  -1
M  END
> <rmsd>
0.201876998

$$$$
ZINC71811364


 27 29  0  0  0  0  0  0  0  0999 V2000
    5.6229   -0.6280    2.3439 C   0  0  0  0  0
   -5.4188   -2.1326   -0.4029 C   0  0  0  0  0
    6.4481   -1.1240    1.3347 C   0  0  0  0  0
   -4.5494   -3.1005   -0.9056 C   0  0  0  0  0
    4.5081    0.1442    2.0169 C   0  0  0  0  0
   -4.9382   -1.1384    0.4494 C   0  0  0  0  0
    6.1587   -0.8478   -0.0016 C   0  0  0  0  0
   -3.1992   -3.0744   -0.5559 C   0  0  0  0  0
   -2.2573    3.0163   -0.0031 C   0  0  0  0  0
   -3.6573    3.0297    0.1426 C   0  0  0  0  0
    4.2187    0.4204    0.6806 C   0  0  0  0  0
   -3.5881   -1.1124    0.7991 C   0  0  0  0  0
    5.0440   -0.0756   -0.3286 C   0  0  0  0  0
   -2.7187   -2.0804    0.2964 C   0  0  0  0  0
   -1.8621    1.8396    0.5849 C   0  0  0  0  0
    3.0436    1.2314    0.3830 C   0  0  0  0  0
    1.7729    0.9010    0.6968 C   0  0  0  0  0
    0.6395    1.8059    0.3339 C   0  0  0  0  0
   -3.1158   -0.0210    1.7212 C   0  0  0  0  0
   -4.1206    1.9474    0.7734 N   0  0  0  0  0
   -3.0052    1.2428    1.0294 N   0  0  0  0  0
   -0.5741    1.2735    0.7497 N   0  0  0  0  0
    4.7790    0.1899   -1.7021 N   0  0  0  0  0
    4.0516   -0.6050   -2.3417 O   0  0  0  0  0
    0.8321    2.8645   -0.2525 O   0  0  0  0  0
    5.2813    1.2100   -2.2282 O   0  0  0  0  0
   -0.8760   -2.0885    0.7454 Br  0  0  0  0  0
  1  3  1  0  0  0
  2  4  1  0  0  0
  5 11  1  0  0  0
  6 12  1  0  0  0
  7 13  1  0  0  0
  8 14  1  0  0  0
  9 10  1  0  0  0
 11 16  1  0  0  0
 13 23  1  0  0  0
 14 27  1  0  0  0
 15 21  1  0  0  0
 15 22  1  0  0  0
 17 18  1  0  0  0
 18 22  1  0  0  0
 19 12  1  0  0  0
 19 21  1  0  0  0
 21 20  1  0  0  0
 23 24  1  0  0  0
  1  5  2  0  0  0
  2  6  2  0  0  0
  3  7  2  0  0  0
  4  8  2  0  0  0
  9 15  2  0  0  0
 10 20  2  0  0  0
 11 13  2  0  0  0
 12 14  2  0  0  0
 16 17  2  0  0  0
 18 25  2  0  0  0
 23 26  2  0  0  0
M  CHG  2  23   1  24  -1
M  END
> <rmsd>
0.572915673

$$$$
ZINC35397635


 25 26  0  0  0  0  0  0  0  0999 V2000
   -3.2259   -1.2094    0.6662 C   0  0  0  0  0
   -2.3867   -0.8724   -1.5741 C   0  0  0  0  0
   -3.2702   -2.5854    0.4428 C   0  0  0  0  0
   -2.4310   -2.2485   -1.7976 C   0  0  0  0  0
    1.0043    0.7945   -0.3281 C   0  0  0  0  0
   -0.0193    2.6936   -1.3292 C   0  0  0  0  0
    2.0450    0.9113   -1.2427 C   0  0  0  0  0
   -0.0513    1.6987   -0.3654 C   0  0  0  0  0
   -2.7842   -0.3528   -0.3422 C   0  0  0  0  0
   -2.8726   -3.1051   -0.7891 C   0  0  0  0  0
    1.9831    1.9414   -2.1673 C   0  0  0  0  0
    3.1622   -0.0479   -1.2011 C   0  0  0  0  0
    2.2908    2.2244   -5.4010 C   0  0  0  0  0
    3.9036    4.3299   -3.0575 C   0  0  0  0  0
    2.9705    1.3830   -4.3749 C   0  0  0  0  0
    4.1888    2.8901   -2.7960 C   0  0  0  0  0
    0.9743    2.8388   -2.2343 N   0  0  0  0  0
   -1.1422    1.6038    0.5669 N   0  0  0  0  0
    3.0406    2.0667   -3.1028 N   0  0  0  0  0
    3.0779   -1.1263   -1.8990 O   0  0  0  0  0
    4.1848    0.2248   -0.4681 O   0  0  0  0  0
   -3.6852    1.6793    0.9939 O   0  0  0  0  0
   -2.8515    2.0547   -1.3436 O   0  0  0  0  0
   -2.7289    1.3698   -0.0626 S   0  0  0  0  0
   -2.9332   -4.9695   -1.0922 Br  0  0  0  0  0
  1  9  1  0  0  0
  2  4  1  0  0  0
  3 10  1  0  0  0
  5  8  1  0  0  0
  6 17  1  0  0  0
  7 11  1  0  0  0
  7 12  1  0  0  0
  8 18  1  0  0  0
 10 25  1  0  0  0
 11 19  1  0  0  0
 12 20  1  0  0  0
 13 15  1  0  0  0
 14 16  1  0  0  0
 15 19  1  0  0  0
 16 19  1  0  0  0
 24  9  1  0  0  0
 24 18  1  0  0  0
  1  3  2  0  0  0
  2  9  2  0  0  0
  4 10  2  0  0  0
  5  7  2  0  0  0
  6  8  2  0  0  0
 11 17  2  0  0  0
 12 21  2  0  0  0
 24 22  2  0  0  0
 24 23  2  0  0  0
M  CHG  1  20  -1
M  END
> <rmsd>
0.694995999

$$$$
ZINC35397635


 25 26  0  0  0  0  0  0  0  0999 V2000
   -3.3968   -1.1895    0.7447 C   0  0  0  0  0
   -2.7423   -0.9492   -1.5685 C   0  0  0  0  0
   -3.5694   -2.5603    0.5535 C   0  0  0  0  0
   -2.9149   -2.3201   -1.7597 C   0  0  0  0  0
    0.8690    0.4564   -0.6669 C   0  0  0  0  0
   -0.0895    2.4186   -1.6091 C   0  0  0  0  0
    1.8276    0.4779   -1.6738 C   0  0  0  0  0
   -0.1113    1.4417   -0.6268 C   0  0  0  0  0
   -2.9833   -0.3838   -0.3164 C   0  0  0  0  0
   -3.3283   -3.1257   -0.6987 C   0  0  0  0  0
    1.7625    1.4978   -2.6094 C   0  0  0  0  0
    2.8650   -0.5671   -1.7141 C   0  0  0  0  0
    1.7943    1.7143   -5.8627 C   0  0  0  0  0
    3.7753    3.7134   -3.7165 C   0  0  0  0  0
    2.4968    0.8343   -4.8855 C   0  0  0  0  0
    3.9691    2.2589   -3.4532 C   0  0  0  0  0
    0.8255    2.4723   -2.6029 N   0  0  0  0  0
   -1.1163    1.4463    0.4018 N   0  0  0  0  0
    2.7365    1.5262   -3.6388 N   0  0  0  0  0
    2.6327   -1.6441   -2.3800 O   0  0  0  0  0
    3.9686   -0.3679   -1.0819 O   0  0  0  0  0
   -3.5958    1.7306    1.0549 O   0  0  0  0  0
   -2.9525    2.0084   -1.3552 O   0  0  0  0  0
   -2.7674    1.3322   -0.0771 S   0  0  0  0  0
   -3.5627   -4.9829   -0.9578 Br  0  0  0  0  0
  1  9  1  0  0  0
  2  4  1  0  0  0
  3 10  1  0  0  0
  5  8  1  0  0  0
  6 17  1  0  0  0
  7 11  1  0  0  0
  7 12  1  0  0  0
  8 18  1  0  0  0
 10 25  1  0  0  0
 11 19  1  0  0  0
 12 20  1  0  0  0
 13 15  1  0  0  0
 14 16  1  0  0  0
 15 19  1  0  0  0
 16 19  1  0  0  0
 24  9  1  0  0  0
 24 18  1  0  0  0
  1  3  2  0  0  0
  2  9  2  0  0  0
  4 10  2  0  0  0
  5  7  2  0  0  0
  6  8  2  0  0  0
 11 17  2  0  0  0
 12 21  2  0  0  0
 24 22  2  0  0  0
 24 23  2  0  0  0
M  CHG  1  20  -1
M  END
> <rmsd>
0.51290226

$$$$
ZINC32961666


 30 32  0  0  0  0  0  0  0  0999 V2000
    7.5991    2.4906   -8.0220 C   0  0  0  0  0
   -3.5399   -2.5666    0.5398 C   0  0  0  0  0
   -2.9065   -2.3074   -1.7772 C   0  0  0  0  0
    0.8687    2.5239   -2.5711 C   0  0  0  0  0
   -0.1071    2.5008   -1.5747 C   0  0  0  0  0
   -3.3756   -1.1957    0.7380 C   0  0  0  0  0
   -2.7423   -0.9365   -1.5790 C   0  0  0  0  0
    0.8585    0.4765   -0.6763 C   0  0  0  0  0
    1.8343    0.4996   -1.6727 C   0  0  0  0  0
   -3.3053   -3.1225   -0.7178 C   0  0  0  0  0
    1.8393    1.5234   -2.6202 C   0  0  0  0  0
   -0.1121    1.4770   -0.6272 C   0  0  0  0  0
   -2.9768   -0.3806   -0.3213 C   0  0  0  0  0
    2.8492   -0.5704   -1.7019 C   0  0  0  0  0
    3.7053    2.7208   -3.7279 C   0  0  0  0  0
    2.5224    0.8723   -4.8905 C   0  0  0  0  0
    4.9646    2.3579   -4.5190 C   0  0  0  0  0
    3.8199    0.5683   -5.6431 C   0  0  0  0  0
   -3.4788   -4.5884   -0.9296 C   0  0  0  0  0
    6.3842    2.7594   -7.2384 C   0  0  0  0  0
    5.8303    1.4933   -6.5933 C   0  0  0  0  0
    8.5579    2.2807   -8.6408 N   0  0  0  0  0
    2.8094    1.5647   -3.6279 N   0  0  0  0  0
    4.6201    1.7857   -5.8261 N   0  0  0  0  0
   -1.1113    1.4536    0.3925 N   0  0  0  0  0
    2.6045   -1.6338   -2.3831 O   0  0  0  0  0
    3.9422   -0.4016   -1.0450 O   0  0  0  0  0
   -3.5969    1.7227    1.0635 O   0  0  0  0  0
   -2.9651    2.0172   -1.3477 O   0  0  0  0  0
   -2.7679    1.3589   -0.0705 S   0  0  0  0  0
  2 10  1  0  0  0
  3  7  1  0  0  0
  4 11  1  0  0  0
  5 12  1  0  0  0
  6 13  1  0  0  0
  8  9  1  0  0  0
  9 14  1  0  0  0
 11 23  1  0  0  0
 12 25  1  0  0  0
 14 26  1  0  0  0
 15 17  1  0  0  0
 15 23  1  0  0  0
 16 18  1  0  0  0
 16 23  1  0  0  0
 17 24  1  0  0  0
 18 24  1  0  0  0
 19 10  1  0  0  0
 20  1  1  0  0  0
 20 21  1  0  0  0
 21 24  1  0  0  0
 30 13  1  0  0  0
 30 25  1  0  0  0
  2  6  2  0  0  0
  3 10  2  0  0  0
  4  5  2  0  0  0
  7 13  2  0  0  0
  8 12  2  0  0  0
  9 11  2  0  0  0
 14 27  2  0  0  0
 30 28  2  0  0  0
 30 29  2  0  0  0
  1 22  3  0  0  0
M  CHG  1  26  -1
M  END
> <rmsd>
0.526246965

$$$$
ZINC32961666


 30 32  0  0  0  0  0  0  0  0999 V2000
    8.2101    3.4705   -6.9846 C   0  0  0  0  0
   -3.2446   -2.5889    0.4338 C   0  0  0  0  0
   -2.4211   -2.2386   -1.8103 C   0  0  0  0  0
    1.0207    2.8833   -2.1908 C   0  0  0  0  0
   -0.0386    2.7664   -1.2908 C   0  0  0  0  0
   -3.2075   -1.2134    0.6621 C   0  0  0  0  0
   -2.3840   -0.8630   -1.5820 C   0  0  0  0  0
    0.9953    0.8062   -0.3286 C   0  0  0  0  0
    2.0546    0.9230   -1.2286 C   0  0  0  0  0
   -2.8514   -3.1016   -0.8024 C   0  0  0  0  0
    2.0672    1.9616   -2.1597 C   0  0  0  0  0
   -0.0512    1.7279   -0.3597 C   0  0  0  0  0
   -2.7773   -0.3504   -0.3457 C   0  0  0  0  0
    3.1486   -0.0648   -1.1743 C   0  0  0  0  0
    3.9283    3.3198   -3.0733 C   0  0  0  0  0
    3.0072    1.4075   -4.3629 C   0  0  0  0  0
    5.2802    3.0698   -3.7465 C   0  0  0  0  0
    4.3888    1.2186   -4.9935 C   0  0  0  0  0
   -2.8889   -4.5722   -1.0462 C   0  0  0  0  0
    6.9103    3.6301   -6.3157 C   0  0  0  0  0
    6.4000    2.3133   -5.7399 C   0  0  0  0  0
    9.2357    3.3467   -7.5128 N   0  0  0  0  0
    3.1204    2.0963   -3.0712 N   0  0  0  0  0
    5.1046    2.4972   -5.0867 N   0  0  0  0  0
   -1.1358    1.6085    0.5612 N   0  0  0  0  0
    3.0525   -1.1310   -1.8875 O   0  0  0  0  0
    4.1593    0.1754   -0.4157 O   0  0  0  0  0
   -3.6864    1.6727    0.9984 O   0  0  0  0  0
   -2.8585    2.0599   -1.3392 O   0  0  0  0  0
   -2.7297    1.3951   -0.0567 S   0  0  0  0  0
  2 10  1  0  0  0
  3  7  1  0  0  0
  4 11  1  0  0  0
  5 12  1  0  0  0
  6 13  1  0  0  0
  8  9  1  0  0  0
  9 14  1  0  0  0
 11 23  1  0  0  0
 12 25  1  0  0  0
 14 26  1  0  0  0
 15 17  1  0  0  0
 15 23  1  0  0  0
 16 18  1  0  0  0
 16 23  1  0  0  0
 17 24  1  0  0  0
 18 24  1  0  0  0
 19 10  1  0  0  0
 20  1  1  0  0  0
 20 21  1  0  0  0
 21 24  1  0  0  0
 30 13  1  0  0  0
 30 25  1  0  0  0
  2  6  2  0  0  0
  3 10  2  0  0  0
  4  5  2  0  0  0
  7 13  2  0  0  0
  8 12  2  0  0  0
  9 11  2  0  0  0
 14 27  2  0  0  0
 30 28  2  0  0  0
 30 29  2  0  0  0
  1 22  3  0  0  0
M  CHG  1  26  -1
M  END
> <rmsd>
0.707191467

$$$$
ZINC32961973


 30 32  0  0  0  0  0  0  0  0999 V2000
   -4.7794    8.7852    0.0069 C   0  0  0  0  0
   -3.1615   -3.1249   -0.7722 C   0  0  0  0  0
   -3.2706   -2.2295   -1.8360 C   0  0  0  0  0
    1.9343    1.5840   -2.4892 C   0  0  0  0  0
   -2.9246   -2.6501    0.5179 C   0  0  0  0  0
    1.0327    2.6447   -2.3997 C   0  0  0  0  0
   -3.1426   -0.8590   -1.6099 C   0  0  0  0  0
    0.8201    0.4818   -0.6505 C   0  0  0  0  0
    1.8278    0.5025   -1.6147 C   0  0  0  0  0
   -2.7967   -1.2796    0.7439 C   0  0  0  0  0
    0.0249    2.6238   -1.4356 C   0  0  0  0  0
   -0.0815    1.5425   -0.5610 C   0  0  0  0  0
   -2.9057   -0.3840   -0.3200 C   0  0  0  0  0
    2.7791   -0.6165   -1.7097 C   0  0  0  0  0
   -1.2009    4.4514   -2.5756 C   0  0  0  0  0
   -0.9375    4.4544   -0.1061 C   0  0  0  0  0
   -2.5201    5.2067   -2.3950 C   0  0  0  0  0
   -2.2655    5.2084   -0.0051 C   0  0  0  0  0
   -2.5420   -0.8037    2.1370 C   0  0  0  0  0
   -3.5393    8.0103   -0.1477 C   0  0  0  0  0
   -3.7317    6.8023   -1.0586 C   0  0  0  0  0
   -5.7569    9.3980    0.1303 N   0  0  0  0  0
   -0.8690    3.6979   -1.3626 N   0  0  0  0  0
   -2.4873    6.0455   -1.1907 N   0  0  0  0  0
   -1.1067    1.4990    0.4359 N   0  0  0  0  0
    2.6595   -1.6029   -0.8903 O   0  0  0  0  0
    3.7001   -0.5725   -2.6089 O   0  0  0  0  0
   -3.6121    1.7066    1.0426 O   0  0  0  0  0
   -2.9283    2.0108   -1.3532 O   0  0  0  0  0
   -2.7464    1.3608   -0.0695 S   0  0  0  0  0
  2  3  1  0  0  0
  4  9  1  0  0  0
  5 10  1  0  0  0
  6 11  1  0  0  0
  7 13  1  0  0  0
  8 12  1  0  0  0
  9 14  1  0  0  0
 11 23  1  0  0  0
 12 25  1  0  0  0
 14 26  1  0  0  0
 15 17  1  0  0  0
 15 23  1  0  0  0
 16 18  1  0  0  0
 16 23  1  0  0  0
 17 24  1  0  0  0
 18 24  1  0  0  0
 19 10  1  0  0  0
 20  1  1  0  0  0
 20 21  1  0  0  0
 21 24  1  0  0  0
 30 13  1  0  0  0
 30 25  1  0  0  0
  2  5  2  0  0  0
  3  7  2  0  0  0
  4  6  2  0  0  0
  8  9  2  0  0  0
 10 13  2  0  0  0
 11 12  2  0  0  0
 14 27  2  0  0  0
 30 28  2  0  0  0
 30 29  2  0  0  0
  1 22  3  0  0  0
M  CHG  1  26  -1
M  END
> <rmsd>
0.591781914

$$$$
ZINC33253435


 30 33  0  0  0  0  0  0  0  0999 V2000
   -3.2321   -2.5862    0.4264 C   0  0  0  0  0
    0.9791    2.8467   -2.2573 C   0  0  0  0  0
   -0.0691    2.7413   -1.3432 C   0  0  0  0  0
   -3.2024   -1.2110    0.6559 C   0  0  0  0  0
    0.9942    0.8146   -0.3460 C   0  0  0  0  0
   -2.3876   -0.8578   -1.5873 C   0  0  0  0  0
    2.0425    0.9201   -1.2602 C   0  0  0  0  0
   -2.8320   -3.1132   -0.8108 C   0  0  0  0  0
   -2.4227   -2.2385   -1.8345 C   0  0  0  0  0
    2.0350    1.9361   -2.2158 C   0  0  0  0  0
   -0.0616    1.7252   -0.3875 C   0  0  0  0  0
   -2.7780   -0.3474   -0.3496 C   0  0  0  0  0
    3.1467   -0.0558   -1.1946 C   0  0  0  0  0
   -2.9102   -4.6033   -1.0317 C   0  0  0  0  0
   -1.9610   -2.7545   -3.1745 C   0  0  0  0  0
   -2.1092   -5.0764   -2.2432 C   0  0  0  0  0
   -2.3970   -4.1923   -3.4498 C   0  0  0  0  0
    4.0290    1.5493   -5.3553 C   0  0  0  0  0
    5.4736    2.4750   -3.5346 C   0  0  0  0  0
    2.7826    1.9688   -4.5762 C   0  0  0  0  0
    4.2236    2.8967   -2.7640 C   0  0  0  0  0
    5.2217    2.4595   -5.0458 C   0  0  0  0  0
    6.4671    2.0000   -5.8000 C   0  0  0  0  0
    3.0773    2.0591   -3.1423 N   0  0  0  0  0
   -1.1426    1.6169    0.5546 N   0  0  0  0  0
    3.0533   -1.1396   -1.8810 O   0  0  0  0  0
    4.1631    0.2122   -0.4531 O   0  0  0  0  0
   -3.6819    1.6701    1.0063 O   0  0  0  0  0
   -2.8736    2.0650   -1.3368 O   0  0  0  0  0
   -2.7335    1.3737   -0.0610 S   0  0  0  0  0
  1  8  1  0  0  0
  2 10  1  0  0  0
  3 11  1  0  0  0
  4 12  1  0  0  0
  5  7  1  0  0  0
  6  9  1  0  0  0
  7 13  1  0  0  0
 10 24  1  0  0  0
 11 25  1  0  0  0
 13 26  1  0  0  0
 14  8  1  0  0  0
 14 16  1  0  0  0
 15  9  1  0  0  0
 15 17  1  0  0  0
 16 17  1  0  0  0
 18 20  1  0  0  0
 18 22  1  0  0  0
 19 21  1  0  0  0
 19 22  1  0  0  0
 20 24  1  0  0  0
 21 24  1  0  0  0
 22 23  1  0  0  0
 30 12  1  0  0  0
 30 25  1  0  0  0
  1  4  2  0  0  0
  2  3  2  0  0  0
  5 11  2  0  0  0
  6 12  2  0  0  0
  7 10  2  0  0  0
  8  9  2  0  0  0
 13 27  2  0  0  0
 30 28  2  0  0  0
 30 29  2  0  0  0
M  CHG  1  26  -1
M  END
> <rmsd>
0.713665366

$$$$
ZINC33253435


 30 33  0  0  0  0  0  0  0  0999 V2000
   -3.5356   -2.5635    0.5368 C   0  0  0  0  0
    0.8293    2.4758   -2.6264 C   0  0  0  0  0
   -0.1360    2.4675   -1.6197 C   0  0  0  0  0
   -3.3763   -1.1922    0.7344 C   0  0  0  0  0
    0.8583    0.4747   -0.6829 C   0  0  0  0  0
   -2.7445   -0.9358   -1.5798 C   0  0  0  0  0
    1.8236    0.4831   -1.6897 C   0  0  0  0  0
   -3.2932   -3.1375   -0.7203 C   0  0  0  0  0
   -2.9113   -2.3124   -1.7944 C   0  0  0  0  0
    1.8092    1.4836   -2.6615 C   0  0  0  0  0
   -0.1215    1.4669   -0.6479 C   0  0  0  0  0
   -2.9786   -0.3792   -0.3229 C   0  0  0  0  0
    2.8485   -0.5777   -1.7038 C   0  0  0  0  0
   -3.5090   -4.6192   -0.9026 C   0  0  0  0  0
   -2.6163   -2.8817   -3.1597 C   0  0  0  0  0
   -2.8620   -5.1714   -2.1713 C   0  0  0  0  0
   -3.1881   -4.2832   -3.3650 C   0  0  0  0  0
    3.4710    0.8956   -5.9592 C   0  0  0  0  0
    5.1446    1.7258   -4.2953 C   0  0  0  0  0
    2.3381    1.4245   -5.0798 C   0  0  0  0  0
    4.0076    2.2571   -3.4242 C   0  0  0  0  0
    4.7552    1.7106   -5.7771 C   0  0  0  0  0
    5.8861    1.1421   -6.6308 C   0  0  0  0  0
    2.7689    1.5098   -3.6804 N   0  0  0  0  0
   -1.1171    1.4587    0.3899 N   0  0  0  0  0
    2.6072   -1.6595   -2.3566 O   0  0  0  0  0
    3.9464   -0.3828   -1.0625 O   0  0  0  0  0
   -3.5923    1.7225    1.0672 O   0  0  0  0  0
   -2.9728    2.0197   -1.3468 O   0  0  0  0  0
   -2.7718    1.3364   -0.0748 S   0  0  0  0  0
  1  8  1  0  0  0
  2 10  1  0  0  0
  3 11  1  0  0  0
  4 12  1  0  0  0
  5  7  1  0  0  0
  6  9  1  0  0  0
  7 13  1  0  0  0
 10 24  1  0  0  0
 11 25  1  0  0  0
 13 26  1  0  0  0
 14  8  1  0  0  0
 14 16  1  0  0  0
 15  9  1  0  0  0
 15 17  1  0  0  0
 16 17  1  0  0  0
 18 20  1  0  0  0
 18 22  1  0  0  0
 19 21  1  0  0  0
 19 22  1  0  0  0
 20 24  1  0  0  0
 21 24  1  0  0  0
 22 23  1  0  0  0
 30 12  1  0  0  0
 30 25  1  0  0  0
  1  4  2  0  0  0
  2  3  2  0  0  0
  5 11  2  0  0  0
  6 12  2  0  0  0
  7 10  2  0  0  0
  8  9  2  0  0  0
 13 27  2  0  0  0
 30 28  2  0  0  0
 30 29  2  0  0  0
M  CHG  1  26  -1
M  END
> <rmsd>
0.529561639

$$$$
ZINC16926105


 30 32  0  0  0  0  0  0  0  0999 V2000
   -3.3336   -1.0959    0.5289 C   0  0  0  0  0
   -4.1301   -1.5540   -1.7055 C   0  0  0  0  0
   -3.5120   -2.4372    0.8675 C   0  0  0  0  0
   -4.3084   -2.8954   -1.3669 C   0  0  0  0  0
    2.2266   -1.5081    0.6095 C   0  0  0  0  0
    0.3888   -0.3008    1.6105 C   0  0  0  0  0
    1.2833    0.4089   -0.5186 C   0  0  0  0  0
    1.3159   -1.3422    1.6529 C   0  0  0  0  0
    2.2104   -0.6324   -0.4762 C   0  0  0  0  0
   -3.6427   -0.6543   -0.7576 C   0  0  0  0  0
    0.3725    0.5747    0.5247 C   0  0  0  0  0
   -3.9994   -3.3370   -0.0804 C   0  0  0  0  0
   -3.5809    1.7490   -0.1556 C   0  0  0  0  0
   -3.1647    1.1195   -2.4084 C   0  0  0  0  0
    1.3329   -2.2662    2.7985 C   0  0  0  0  0
    3.1715   -0.8078   -1.5775 C   0  0  0  0  0
   -0.7227    2.5892   -0.5164 C   0  0  0  0  0
   -3.1954    3.0955   -0.7222 C   0  0  0  0  0
   -1.8537    3.5453   -0.1675 C   0  0  0  0  0
   -3.4582    0.7296   -1.1071 N   0  0  0  0  0
   -0.5674    1.6319    0.4821 N   0  0  0  0  0
    0.4816   -2.0908    3.7487 O   0  0  0  0  0
    3.1351    0.0141   -2.5682 O   0  0  0  0  0
   -3.9693    1.6504    1.0061 O   0  0  0  0  0
   -2.9192    0.4354   -3.3909 O   0  0  0  0  0
    2.1987   -3.2195    2.8131 O   0  0  0  0  0
    4.0165   -1.7774   -1.5138 O   0  0  0  0  0
   -0.0739    2.6992   -1.5514 O   0  0  0  0  0
   -4.1734   -4.6456    0.2503 O   0  0  0  0  0
   -3.1072    2.8706   -2.5079 S   0  0  0  0  0
  1  3  1  0  0  0
  2 10  1  0  0  0
  4 12  1  0  0  0
  5  8  1  0  0  0
  6 11  1  0  0  0
  7  9  1  0  0  0
  8 15  1  0  0  0
  9 16  1  0  0  0
 10 20  1  0  0  0
 11 21  1  0  0  0
 12 29  1  0  0  0
 13 20  1  0  0  0
 14 20  1  0  0  0
 14 30  1  0  0  0
 15 22  1  0  0  0
 16 23  1  0  0  0
 17 21  1  0  0  0
 18 13  1  0  0  0
 18 19  1  0  0  0
 18 30  1  0  0  0
 19 17  1  0  0  0
  1 10  2  0  0  0
  2  4  2  0  0  0
  3 12  2  0  0  0
  5  9  2  0  0  0
  6  8  2  0  0  0
  7 11  2  0  0  0
 13 24  2  0  0  0
 14 25  2  0  0  0
 15 26  2  0  0  0
 16 27  2  0  0  0
 17 28  2  0  0  0
M  CHG  2  22  -1  23  -1
M  END
> <rmsd>
0.330018491

$$$$
ZINC16925936


 30 32  0  0  0  0  0  0  0  0999 V2000
   -4.3090   -2.8944   -1.3674 C   0  0  0  0  0
   -4.1302   -1.5532   -1.7058 C   0  0  0  0  0
   -3.9999   -3.3363   -0.0810 C   0  0  0  0  0
    2.2271   -1.5074    0.6094 C   0  0  0  0  0
    0.3893   -0.3002    1.6104 C   0  0  0  0  0
    1.2838    0.4096   -0.5187 C   0  0  0  0  0
   -3.3331   -1.0956    0.5286 C   0  0  0  0  0
    1.3164   -1.3415    1.6528 C   0  0  0  0  0
    2.2109   -0.6317   -0.4763 C   0  0  0  0  0
   -3.6422   -0.6538   -0.7579 C   0  0  0  0  0
    0.3730    0.5753    0.5246 C   0  0  0  0  0
   -3.5119   -2.4370    0.8670 C   0  0  0  0  0
   -3.5805    1.7496   -0.1559 C   0  0  0  0  0
   -3.1642    1.1201   -2.4087 C   0  0  0  0  0
    1.3334   -2.2655    2.7983 C   0  0  0  0  0
    3.1720   -0.8070   -1.5776 C   0  0  0  0  0
   -0.7223    2.5899   -0.5166 C   0  0  0  0  0
   -3.1950    3.0960   -0.7224 C   0  0  0  0  0
   -1.8533    3.5458   -0.1677 C   0  0  0  0  0
   -3.4577    0.7302   -1.1074 N   0  0  0  0  0
   -0.5669    1.6325    0.4819 N   0  0  0  0  0
    0.4820   -2.0902    3.7486 O   0  0  0  0  0
    3.1356    0.0149   -2.5683 O   0  0  0  0  0
   -3.9689    1.6509    1.0059 O   0  0  0  0  0
   -2.9187    0.4360   -3.3911 O   0  0  0  0  0
    2.1993   -3.2188    2.8130 O   0  0  0  0  0
    4.0170   -1.7766   -1.5139 O   0  0  0  0  0
   -0.0735    2.6999   -1.5515 O   0  0  0  0  0
   -3.2104   -2.8685    2.1223 O   0  0  0  0  0
   -3.1068    2.8712   -2.5081 S   0  0  0  0  0
  1  2  1  0  0  0
  3 12  1  0  0  0
  4  8  1  0  0  0
  5 11  1  0  0  0
  6  9  1  0  0  0
  7 10  1  0  0  0
  8 15  1  0  0  0
  9 16  1  0  0  0
 10 20  1  0  0  0
 11 21  1  0  0  0
 12 29  1  0  0  0
 13 20  1  0  0  0
 14 20  1  0  0  0
 14 30  1  0  0  0
 15 22  1  0  0  0
 16 23  1  0  0  0
 17 21  1  0  0  0
 18 13  1  0  0  0
 18 19  1  0  0  0
 18 30  1  0  0  0
 19 17  1  0  0  0
  1  3  2  0  0  0
  2 10  2  0  0  0
  4  9  2  0  0  0
  5  8  2  0  0  0
  6 11  2  0  0  0
  7 12  2  0  0  0
 13 24  2  0  0  0
 14 25  2  0  0  0
 15 26  2  0  0  0
 16 27  2  0  0  0
 17 28  2  0  0  0
M  CHG  2  22  -1  23  -1
M  END
> <rmsd>
0.329792887

$$$$
ZINC16925936


 30 32  0  0  0  0  0  0  0  0999 V2000
   -3.5119   -2.4361    0.8674 C   0  0  0  0  0
   -3.3331   -1.0949    0.5284 C   0  0  0  0  0
   -3.9999   -3.3359   -0.0803 C   0  0  0  0  0
    2.2271   -1.5073    0.6092 C   0  0  0  0  0
    0.3893   -0.3001    1.6102 C   0  0  0  0  0
    1.2838    0.4097   -0.5189 C   0  0  0  0  0
   -4.1303   -1.5532   -1.7057 C   0  0  0  0  0
    1.3164   -1.3415    1.6526 C   0  0  0  0  0
    2.2109   -0.6316   -0.4765 C   0  0  0  0  0
   -3.6422   -0.6535   -0.7581 C   0  0  0  0  0
    0.3730    0.5754    0.5245 C   0  0  0  0  0
   -4.3091   -2.8944   -1.3668 C   0  0  0  0  0
   -3.5804    1.7498   -0.1560 C   0  0  0  0  0
   -3.1641    1.1204   -2.4088 C   0  0  0  0  0
    1.3333   -2.2656    2.7981 C   0  0  0  0  0
    3.1720   -0.8069   -1.5778 C   0  0  0  0  0
   -0.7222    2.5900   -0.5166 C   0  0  0  0  0
   -3.1949    3.0963   -0.7224 C   0  0  0  0  0
   -1.8532    3.5460   -0.1677 C   0  0  0  0  0
   -3.4577    0.7304   -1.1075 N   0  0  0  0  0
   -0.5669    1.6326    0.4818 N   0  0  0  0  0
    0.4820   -2.0903    3.7483 O   0  0  0  0  0
    3.1356    0.0151   -2.5684 O   0  0  0  0  0
   -3.9688    1.6510    1.0058 O   0  0  0  0  0
   -2.9186    0.4364   -3.3912 O   0  0  0  0  0
    2.1992   -3.2188    2.8127 O   0  0  0  0  0
    4.0170   -1.7765   -1.5141 O   0  0  0  0  0
   -0.0734    2.7001   -1.5516 O   0  0  0  0  0
   -4.7853   -3.7727   -2.2913 O   0  0  0  0  0
   -3.1067    2.8715   -2.5082 S   0  0  0  0  0
  1  2  1  0  0  0
  3 12  1  0  0  0
  4  8  1  0  0  0
  5 11  1  0  0  0
  6  9  1  0  0  0
  7 10  1  0  0  0
  8 15  1  0  0  0
  9 16  1  0  0  0
 10 20  1  0  0  0
 11 21  1  0  0  0
 12 29  1  0  0  0
 13 20  1  0  0  0
 14 20  1  0  0  0
 14 30  1  0  0  0
 15 22  1  0  0  0
 16 23  1  0  0  0
 17 21  1  0  0  0
 18 13  1  0  0  0
 18 19  1  0  0  0
 18 30  1  0  0  0
 19 17  1  0  0  0
  1  3  2  0  0  0
  2 10  2  0  0  0
  4  9  2  0  0  0
  5  8  2  0  0  0
  6 11  2  0  0  0
  7 12  2  0  0  0
 13 24  2  0  0  0
 14 25  2  0  0  0
 15 26  2  0  0  0
 16 27  2  0  0  0
 17 28  2  0  0  0
M  CHG  2  22  -1  23  -1
M  END
> <rmsd>
0.329940915

$$$$
ZINC16925950


 30 32  0  0  0  0  0  0  0  0999 V2000
   -4.2158   -2.9448   -1.5296 C   0  0  0  0  0
    2.1306   -1.1130    0.9961 C   0  0  0  0  0
    1.3631   -0.6970    2.0840 C   0  0  0  0  0
   -4.2417   -1.5761   -1.7969 C   0  0  0  0  0
   -3.5682   -3.4206   -0.3894 C   0  0  0  0  0
    0.9993    0.4892   -0.4147 C   0  0  0  0  0
   -2.9723   -1.1588    0.2159 C   0  0  0  0  0
    1.9487   -0.5199   -0.2533 C   0  0  0  0  0
    0.4137    0.3121    1.9225 C   0  0  0  0  0
   -3.6200   -0.6831   -0.9243 C   0  0  0  0  0
    0.2318    0.9052    0.6731 C   0  0  0  0  0
   -2.9464   -2.5276    0.4833 C   0  0  0  0  0
   -3.6252    1.6782   -0.1718 C   0  0  0  0  0
   -3.7112    1.2161   -2.5006 C   0  0  0  0  0
    2.7596   -0.9586   -1.4004 C   0  0  0  0  0
   -0.3840    0.7324    3.0902 C   0  0  0  0  0
   -1.0188    2.6137   -0.6902 C   0  0  0  0  0
   -3.5067    3.0856   -0.7084 C   0  0  0  0  0
   -2.1154    3.6410   -0.4517 C   0  0  0  0  0
   -3.6469    0.7291   -1.2005 N   0  0  0  0  0
   -0.7251    1.9311    0.4868 N   0  0  0  0  0
    2.5724   -0.3954   -2.5435 O   0  0  0  0  0
    0.0636    1.6828    3.8324 O   0  0  0  0  0
   -3.7116    1.4782    1.0377 O   0  0  0  0  0
   -3.6512    0.6144   -3.5626 O   0  0  0  0  0
    3.6299   -1.8914   -1.2238 O   0  0  0  0  0
   -1.4978    0.1331    3.3238 O   0  0  0  0  0
   -0.5039    2.4558   -1.7921 O   0  0  0  0  0
   -2.3146   -2.9920    1.5958 O   0  0  0  0  0
   -3.8327    2.9666   -2.4767 S   0  0  0  0  0
  1  4  1  0  0  0
  2  8  1  0  0  0
  3  9  1  0  0  0
  5 12  1  0  0  0
  6 11  1  0  0  0
  7 10  1  0  0  0
  8 15  1  0  0  0
  9 16  1  0  0  0
 10 20  1  0  0  0
 11 21  1  0  0  0
 12 29  1  0  0  0
 13 20  1  0  0  0
 14 20  1  0  0  0
 14 30  1  0  0  0
 15 22  1  0  0  0
 16 23  1  0  0  0
 17 21  1  0  0  0
 18 13  1  0  0  0
 18 19  1  0  0  0
 18 30  1  0  0  0
 19 17  1  0  0  0
  1  5  2  0  0  0
  2  3  2  0  0  0
  4 10  2  0  0  0
  6  8  2  0  0  0
  7 12  2  0  0  0
  9 11  2  0  0  0
 13 24  2  0  0  0
 14 25  2  0  0  0
 15 26  2  0  0  0
 16 27  2  0  0  0
 17 28  2  0  0  0
M  CHG  2  22  -1  23  -1
M  END
> <rmsd>
0.567941844

$$$$
ZINC16926118


 30 32  0  0  0  0  0  0  0  0999 V2000
    2.1303   -1.1140    0.9958 C   0  0  0  0  0
    1.3628   -0.6980    2.0837 C   0  0  0  0  0
   -2.9726   -1.1588    0.2155 C   0  0  0  0  0
   -4.2414   -1.5763   -1.7978 C   0  0  0  0  0
   -2.9463   -2.5276    0.4827 C   0  0  0  0  0
   -4.2151   -2.9451   -1.5305 C   0  0  0  0  0
    0.9992    0.4886   -0.4149 C   0  0  0  0  0
    1.9485   -0.5206   -0.2535 C   0  0  0  0  0
    0.4136    0.3112    1.9223 C   0  0  0  0  0
   -3.6202   -0.6832   -0.9247 C   0  0  0  0  0
    0.2317    0.9045    0.6730 C   0  0  0  0  0
   -3.5675   -3.4207   -0.3903 C   0  0  0  0  0
   -3.6251    1.6780   -0.1719 C   0  0  0  0  0
   -3.7111    1.2163   -2.5008 C   0  0  0  0  0
    2.7594   -0.9592   -1.4007 C   0  0  0  0  0
   -0.3842    0.7315    3.0900 C   0  0  0  0  0
   -1.0187    2.6134   -0.6901 C   0  0  0  0  0
   -3.5065    3.0855   -0.7083 C   0  0  0  0  0
   -2.1152    3.6407   -0.4515 C   0  0  0  0  0
   -3.6469    0.7291   -1.2008 N   0  0  0  0  0
   -0.7250    1.9306    0.4868 N   0  0  0  0  0
    2.5723   -0.3958   -2.5437 O   0  0  0  0  0
    0.0635    1.6817    3.8324 O   0  0  0  0  0
   -3.7116    1.4779    1.0375 O   0  0  0  0  0
   -3.6512    0.6147   -3.5628 O   0  0  0  0  0
    3.6296   -1.8922   -1.2243 O   0  0  0  0  0
   -1.4980    0.1322    3.3235 O   0  0  0  0  0
   -0.5037    2.4556   -1.7920 O   0  0  0  0  0
   -3.5418   -4.7561   -0.1291 O   0  0  0  0  0
   -3.8324    2.9668   -2.4767 S   0  0  0  0  0
  1  8  1  0  0  0
  2  9  1  0  0  0
  3  5  1  0  0  0
  4 10  1  0  0  0
  6 12  1  0  0  0
  7 11  1  0  0  0
  8 15  1  0  0  0
  9 16  1  0  0  0
 10 20  1  0  0  0
 11 21  1  0  0  0
 12 29  1  0  0  0
 13 20  1  0  0  0
 14 20  1  0  0  0
 14 30  1  0  0  0
 15 22  1  0  0  0
 16 23  1  0  0  0
 17 21  1  0  0  0
 18 13  1  0  0  0
 18 19  1  0  0  0
 18 30  1  0  0  0
 19 17  1  0  0  0
  1  2  2  0  0  0
  3 10  2  0  0  0
  4  6  2  0  0  0
  5 12  2  0  0  0
  7  8  2  0  0  0
  9 11  2  0  0  0
 13 24  2  0  0  0
 14 25  2  0  0  0
 15 26  2  0  0  0
 16 27  2  0  0  0
 17 28  2  0  0  0
M  CHG  2  22  -1  23  -1
M  END
> <rmsd>
0.568426549

$$$$
ZINC03918086


 27 29  0  0  0  0  0  0  0  0999 V2000
   -4.4872   -1.1675    0.4477 C   0  0  0  0  0
   -3.4006   -0.4796   -0.0503 C   0  0  0  0  0
   -2.9979   -2.4345   -0.9591 C   0  0  0  0  0
    3.0780   -0.1616   -0.2847 C   0  0  0  0  0
    3.6268   -0.6224    0.8645 C   0  0  0  0  0
    1.1603    1.2791   -1.1139 C   0  0  0  0  0
   -3.1243    0.9530    0.2406 C   0  0  0  0  0
    3.5186   -0.7402   -1.6243 C   0  0  0  0  0
   -1.9030    1.5957   -0.3624 C   0  0  0  0  0
    3.1237   -0.2296    2.2518 C   0  0  0  0  0
    0.4974    2.0153    0.0854 C   0  0  0  0  0
    1.7362    1.5615    0.8879 C   0  0  0  0  0
   -4.3899    3.6416    2.0016 C   0  0  0  0  0
    4.7814   -1.5920    0.9270 C   0  0  0  0  0
   -2.5452   -1.2046   -0.8568 N   0  0  0  0  0
   -3.9160    1.6417    1.0063 N   0  0  0  0  0
    2.0857    0.7654   -0.2748 N   0  0  0  0  0
   -2.3945   -3.4153   -1.6815 N   0  0  0  0  0
   -0.8111    1.4750    0.4512 N   0  0  0  0  0
    2.8504   -1.7336   -2.0128 O   0  0  0  0  0
    0.9255    1.1341   -2.2906 O   0  0  0  0  0
    4.4906   -0.1457   -2.1592 O   0  0  0  0  0
   -2.0113    2.1254   -1.4565 O   0  0  0  0  0
   -3.4739    2.9635    1.1559 O   0  0  0  0  0
   -4.4476   -2.7883   -0.1117 S   0  0  0  0  0
    1.4295    0.4485    2.2783 S   0  0  0  0  0
    4.1463   -3.2769    0.9413 S   0  0  0  0  0
  1 25  1  0  0  0
  2  7  1  0  0  0
  2 15  1  0  0  0
  3 18  1  0  0  0
  3 25  1  0  0  0
  4  8  1  0  0  0
  4 17  1  0  0  0
  6 17  1  0  0  0
  7  9  1  0  0  0
  8 20  1  0  0  0
  9 19  1  0  0  0
 10  5  1  0  0  0
 10 26  1  0  0  0
 11  6  1  0  0  0
 11 12  1  0  0  0
 11 19  1  0  0  0
 12 17  1  0  0  0
 12 26  1  0  0  0
 13 24  1  0  0  0
 14  5  1  0  0  0
 14 27  1  0  0  0
 16 24  1  0  0  0
  1  2  2  0  0  0
  3 15  2  0  0  0
  4  5  2  0  0  0
  6 21  2  0  0  0
  7 16  2  0  0  0
  8 22  2  0  0  0
  9 23  2  0  0  0
M  CHG  1  20  -1
M  END
> <rmsd>
0.102891937

$$$$
ZINC03918086


 27 29  0  0  0  0  0  0  0  0999 V2000
   -4.2085   -1.2863    0.2907 C   0  0  0  0  0
   -3.1735   -0.4827   -0.1392 C   0  0  0  0  0
   -2.5630   -2.3531   -1.1081 C   0  0  0  0  0
    3.2529    0.4284   -0.1198 C   0  0  0  0  0
    3.8027   -0.0291    1.0302 C   0  0  0  0  0
    1.2399    1.7239   -0.9629 C   0  0  0  0  0
   -3.0397    0.9554    0.2174 C   0  0  0  0  0
    3.7893   -0.0510   -1.4636 C   0  0  0  0  0
   -1.8629    1.7307   -0.3142 C   0  0  0  0  0
    3.2196    0.2577    2.4120 C   0  0  0  0  0
    0.4726    2.3460    0.2386 C   0  0  0  0  0
    1.7201    1.9723    1.0683 C   0  0  0  0  0
   -4.6048    3.4421    2.0336 C   0  0  0  0  0
    5.0387   -0.8923    1.0977 C   0  0  0  0  0
   -2.2287   -1.0928   -0.9411 N   0  0  0  0  0
   -3.9164    1.5369    0.9794 N   0  0  0  0  0
    2.1799    1.2608   -0.1106 N   0  0  0  0  0
   -1.8483   -3.2441   -1.8451 N   0  0  0  0  0
   -0.7924    1.6747    0.5341 N   0  0  0  0  0
    3.2284   -1.0834   -1.9151 O   0  0  0  0  0
    1.0590    1.6081   -2.1524 O   0  0  0  0  0
    4.7200    0.6509   -1.9384 O   0  0  0  0  0
   -1.9826    2.2942   -1.3902 O   0  0  0  0  0
   -3.6026    2.8857    1.1967 O   0  0  0  0  0
   -4.0018   -2.8718   -0.3296 S   0  0  0  0  0
    1.4703    0.7784    2.4020 S   0  0  0  0  0
    4.5606   -2.6268    1.0227 S   0  0  0  0  0
  1 25  1  0  0  0
  2  7  1  0  0  0
  2 15  1  0  0  0
  3 18  1  0  0  0
  3 25  1  0  0  0
  4  8  1  0  0  0
  4 17  1  0  0  0
  6 17  1  0  0  0
  7  9  1  0  0  0
  8 20  1  0  0  0
  9 19  1  0  0  0
 10  5  1  0  0  0
 10 26  1  0  0  0
 11  6  1  0  0  0
 11 12  1  0  0  0
 11 19  1  0  0  0
 12 17  1  0  0  0
 12 26  1  0  0  0
 13 24  1  0  0  0
 14  5  1  0  0  0
 14 27  1  0  0  0
 16 24  1  0  0  0
  1  2  2  0  0  0
  3 15  2  0  0  0
  4  5  2  0  0  0
  6 21  2  0  0  0
  7 16  2  0  0  0
  8 22  2  0  0  0
  9 23  2  0  0  0
M  CHG  1  20  -1
M  END
> <rmsd>
0.402820885

$$$$
ZINC03918086


 27 29  0  0  0  0  0  0  0  0999 V2000
   -2.2556   -1.1550   -0.9590 C   0  0  0  0  0
   -3.1566   -0.4826   -0.1602 C   0  0  0  0  0
   -4.1210   -2.4524   -0.1592 C   0  0  0  0  0
    3.2681    0.4390   -0.1126 C   0  0  0  0  0
    3.8148   -0.0250    1.0363 C   0  0  0  0  0
    1.2560    1.7365   -0.9544 C   0  0  0  0  0
   -3.0264    0.9534    0.2061 C   0  0  0  0  0
    3.8100   -0.0310   -1.4576 C   0  0  0  0  0
   -1.8491    1.7340   -0.3164 C   0  0  0  0  0
    3.2264    0.2519    2.4180 C   0  0  0  0  0
    0.4834    2.3496    0.2484 C   0  0  0  0  0
    1.7287    1.9726    1.0801 C   0  0  0  0  0
   -4.6019    3.4258    2.0328 C   0  0  0  0  0
    5.0519   -0.8866    1.1026 C   0  0  0  0  0
   -4.2271   -1.2247    0.2991 N   0  0  0  0  0
   -3.9067    1.5286    0.9687 N   0  0  0  0  0
    2.1937    1.2694   -0.1018 N   0  0  0  0  0
   -5.0102   -3.4470    0.1017 N   0  0  0  0  0
   -0.7815    1.6744    0.5353 N   0  0  0  0  0
    3.2524   -1.0613   -1.9177 O   0  0  0  0  0
    1.0794    1.6280   -2.1452 O   0  0  0  0  0
    4.7412    0.6755   -1.9246 O   0  0  0  0  0
   -1.9660    2.3042   -1.3892 O   0  0  0  0  0
   -3.5960    2.8764    1.1958 O   0  0  0  0  0
   -2.7582   -2.7838   -1.1480 S   0  0  0  0  0
    1.4763    0.7698    2.4051 S   0  0  0  0  0
    4.5770   -2.6214    1.0148 S   0  0  0  0  0
  1 25  1  0  0  0
  2  7  1  0  0  0
  2 15  1  0  0  0
  3 18  1  0  0  0
  3 25  1  0  0  0
  4  8  1  0  0  0
  4 17  1  0  0  0
  6 17  1  0  0  0
  7  9  1  0  0  0
  8 20  1  0  0  0
  9 19  1  0  0  0
 10  5  1  0  0  0
 10 26  1  0  0  0
 11  6  1  0  0  0
 11 12  1  0  0  0
 11 19  1  0  0  0
 12 17  1  0  0  0
 12 26  1  0  0  0
 13 24  1  0  0  0
 14  5  1  0  0  0
 14 27  1  0  0  0
 16 24  1  0  0  0
  1  2  2  0  0  0
  3 15  2  0  0  0
  4  5  2  0  0  0
  6 21  2  0  0  0
  7 16  2  0  0  0
  8 22  2  0  0  0
  9 23  2  0  0  0
M  CHG  1  20  -1
M  END
> <rmsd>
0.359833658

$$$$
ZINC03918086


 27 29  0  0  0  0  0  0  0  0999 V2000
   -2.5781   -1.2647   -0.8727 C   0  0  0  0  0
   -3.3841   -0.4823   -0.0724 C   0  0  0  0  0
   -4.5211   -2.3541    0.0441 C   0  0  0  0  0
    3.0947   -0.1511   -0.2829 C   0  0  0  0  0
    3.6404   -0.6183    0.8651 C   0  0  0  0  0
    1.1771    1.2915   -1.1091 C   0  0  0  0  0
   -3.1115    0.9488    0.2287 C   0  0  0  0  0
    3.5408   -0.7202   -1.6247 C   0  0  0  0  0
   -1.8893    1.5977   -0.3660 C   0  0  0  0  0
    3.1319   -0.2355    2.2532 C   0  0  0  0  0
    0.5088    2.0187    0.0926 C   0  0  0  0  0
    1.7457    1.5619    0.8963 C   0  0  0  0  0
   -4.3879    3.6237    2.0028 C   0  0  0  0  0
    4.7966   -1.5862    0.9252 C   0  0  0  0  0
   -4.4990   -1.1051    0.4538 N   0  0  0  0  0
   -3.9070    1.6311    0.9962 N   0  0  0  0  0
    2.1005    0.7740   -0.2703 N   0  0  0  0  0
   -5.4858   -3.2524    0.3766 N   0  0  0  0  0
   -0.7999    1.4737    0.4505 N   0  0  0  0  0
    2.8757   -1.7122   -2.0219 O   0  0  0  0  0
    0.9465    1.1538   -2.2876 O   0  0  0  0  0
    4.5135   -0.1204   -2.1525 O   0  0  0  0  0
   -1.9949    2.1343   -1.4570 O   0  0  0  0  0
   -3.4678    2.9527    1.1558 O   0  0  0  0  0
   -3.2320   -2.8468   -0.9759 S   0  0  0  0  0
    1.4363    0.4393    2.2785 S   0  0  0  0  0
    4.1645   -3.2724    0.9265 S   0  0  0  0  0
  1 25  1  0  0  0
  2  7  1  0  0  0
  2 15  1  0  0  0
  3 18  1  0  0  0
  3 25  1  0  0  0
  4  8  1  0  0  0
  4 17  1  0  0  0
  6 17  1  0  0  0
  7  9  1  0  0  0
  8 20  1  0  0  0
  9 19  1  0  0  0
 10  5  1  0  0  0
 10 26  1  0  0  0
 11  6  1  0  0  0
 11 12  1  0  0  0
 11 19  1  0  0  0
 12 17  1  0  0  0
 12 26  1  0  0  0
 13 24  1  0  0  0
 14  5  1  0  0  0
 14 27  1  0  0  0
 16 24  1  0  0  0
  1  2  2  0  0  0
  3 15  2  0  0  0
  4  5  2  0  0  0
  6 21  2  0  0  0
  7 16  2  0  0  0
  8 22  2  0  0  0
  9 23  2  0  0  0
M  CHG  1  20  -1
M  END
> <rmsd>
0.0604453981

$$$$
ZINC64843330


 30 33  0  0  0  0  0  0  0  0999 V2000
   -3.2698   -2.5861    0.4425 C   0  0  0  0  0
   -2.4307   -2.2485   -1.7978 C   0  0  0  0  0
   -3.2261   -1.2101    0.6663 C   0  0  0  0  0
   -2.3870   -0.8724   -1.5740 C   0  0  0  0  0
    1.0038    0.7943   -0.3284 C   0  0  0  0  0
   -0.0200    2.6931   -1.3297 C   0  0  0  0  0
    2.0445    0.9109   -1.2431 C   0  0  0  0  0
   -2.8721   -3.1053   -0.7895 C   0  0  0  0  0
   -0.0519    1.6983   -0.3657 C   0  0  0  0  0
   -2.7846   -0.3532   -0.3420 C   0  0  0  0  0
    1.9824    1.9408   -2.1679 C   0  0  0  0  0
    3.1616   -0.0482   -1.2014 C   0  0  0  0  0
   -2.5622   -7.0708   -2.6262 C   0  0  0  0  0
   -1.5833   -6.7015   -1.5158 C   0  0  0  0  0
   -3.9500   -6.4915   -2.3686 C   0  0  0  0  0
    4.5102    1.6010   -4.8895 C   0  0  0  0  0
    4.9032    2.9260   -4.2682 C   0  0  0  0  0
   -1.5211   -5.1908   -1.2980 C   0  0  0  0  0
   -3.8994   -4.9797   -2.1551 C   0  0  0  0  0
    3.0726    1.4201   -4.4156 C   0  0  0  0  0
    4.2503    2.8590   -2.8923 C   0  0  0  0  0
   -2.9173   -4.5988   -1.0319 C   0  0  0  0  0
    0.9735    2.8382   -2.2350 N   0  0  0  0  0
    3.0327    2.0652   -3.0974 N   0  0  0  0  0
   -1.1427    1.6036    0.5666 N   0  0  0  0  0
    3.0773   -1.1268   -1.8991 O   0  0  0  0  0
    4.1842    0.2247   -0.4685 O   0  0  0  0  0
   -3.6856    1.6791    0.9939 O   0  0  0  0  0
   -2.8521    2.0541   -1.3436 O   0  0  0  0  0
   -2.7294    1.3694   -0.0626 S   0  0  0  0  0
  1  3  1  0  0  0
  2  8  1  0  0  0
  4 10  1  0  0  0
  5  9  1  0  0  0
  6 23  1  0  0  0
  7 11  1  0  0  0
  7 12  1  0  0  0
  9 25  1  0  0  0
 11 24  1  0  0  0
 12 26  1  0  0  0
 13 14  1  0  0  0
 13 15  1  0  0  0
 14 18  1  0  0  0
 15 19  1  0  0  0
 16 17  1  0  0  0
 16 20  1  0  0  0
 17 21  1  0  0  0
 18 22  1  0  0  0
 19 22  1  0  0  0
 20 24  1  0  0  0
 21 24  1  0  0  0
 22  8  1  0  0  0
 30 10  1  0  0  0
 30 25  1  0  0  0
  1  8  2  0  0  0
  2  4  2  0  0  0
  3 10  2  0  0  0
  5  7  2  0  0  0
  6  9  2  0  0  0
 11 23  2  0  0  0
 12 27  2  0  0  0
 30 28  2  0  0  0
 30 29  2  0  0  0
M  CHG  1  26  -1
M  END
> <rmsd>
0.695347607

$$$$
ZINC64843330


 30 33  0  0  0  0  0  0  0  0999 V2000
   -3.5695   -2.5610    0.5536 C   0  0  0  0  0
   -2.9148   -2.3203   -1.7596 C   0  0  0  0  0
   -3.3973   -1.1901    0.7449 C   0  0  0  0  0
   -2.7426   -0.9495   -1.5682 C   0  0  0  0  0
    0.8686    0.4555   -0.6668 C   0  0  0  0  0
   -0.0898    2.4174   -1.6095 C   0  0  0  0  0
    1.8272    0.4766   -1.6737 C   0  0  0  0  0
   -3.3282   -3.1261   -0.6987 C   0  0  0  0  0
   -0.1116    1.4408   -0.6269 C   0  0  0  0  0
   -2.9838   -0.3844   -0.3160 C   0  0  0  0  0
    1.7621    1.4963   -2.6096 C   0  0  0  0  0
    2.8645   -0.5684   -1.7137 C   0  0  0  0  0
   -3.5007   -7.1267   -2.4762 C   0  0  0  0  0
   -2.3984   -6.8231   -1.4661 C   0  0  0  0  0
   -4.8093   -6.4347   -2.1062 C   0  0  0  0  0
    3.9958    0.9201   -5.5407 C   0  0  0  0  0
    4.5471    2.2171   -4.9838 C   0  0  0  0  0
   -2.1978   -5.3195   -1.2851 C   0  0  0  0  0
   -4.6205   -4.9293   -1.9284 C   0  0  0  0  0
    2.5978    0.8612   -4.9355 C   0  0  0  0  0
    4.0195    2.2203   -3.5537 C   0  0  0  0  0
   -3.5129   -4.6141   -0.9061 C   0  0  0  0  0
    0.8251    2.4708   -2.6034 N   0  0  0  0  0
    2.7295    1.5242   -3.6323 N   0  0  0  0  0
   -1.1167    1.4459    0.4017 N   0  0  0  0  0
    2.6320   -1.6456   -2.3793 O   0  0  0  0  0
    3.9681   -0.3691   -1.0817 O   0  0  0  0  0
   -3.5960    1.7305    1.0547 O   0  0  0  0  0
   -2.9528    2.0076   -1.3554 O   0  0  0  0  0
   -2.7677    1.3317   -0.0772 S   0  0  0  0  0
  1  3  1  0  0  0
  2  8  1  0  0  0
  4 10  1  0  0  0
  5  9  1  0  0  0
  6 23  1  0  0  0
  7 11  1  0  0  0
  7 12  1  0  0  0
  9 25  1  0  0  0
 11 24  1  0  0  0
 12 26  1  0  0  0
 13 14  1  0  0  0
 13 15  1  0  0  0
 14 18  1  0  0  0
 15 19  1  0  0  0
 16 17  1  0  0  0
 16 20  1  0  0  0
 17 21  1  0  0  0
 18 22  1  0  0  0
 19 22  1  0  0  0
 20 24  1  0  0  0
 21 24  1  0  0  0
 22  8  1  0  0  0
 30 10  1  0  0  0
 30 25  1  0  0  0
  1  8  2  0  0  0
  2  4  2  0  0  0
  3 10  2  0  0  0
  5  7  2  0  0  0
  6  9  2  0  0  0
 11 23  2  0  0  0
 12 27  2  0  0  0
 30 28  2  0  0  0
 30 29  2  0  0  0
M  CHG  1  26  -1
M  END
> <rmsd>
0.513058245

$$$$
ZINC35397332


 30 33  0  0  0  0  0  0  0  0999 V2000
   -3.5639   -2.5579    0.5538 C   0  0  0  0  0
   -3.3970   -1.1866    0.7437 C   0  0  0  0  0
    0.8683    0.4554   -0.6666 C   0  0  0  0  0
   -2.7428   -0.9499   -1.5665 C   0  0  0  0  0
   -0.0898    2.4174   -1.6096 C   0  0  0  0  0
    1.8267    0.4762   -1.6738 C   0  0  0  0  0
   -3.3144   -3.1420   -0.6974 C   0  0  0  0  0
   -2.9173   -2.3267   -1.7734 C   0  0  0  0  0
   -0.1117    1.4410   -0.6268 C   0  0  0  0  0
   -2.9843   -0.3832   -0.3153 C   0  0  0  0  0
    1.7617    1.4957   -2.6097 C   0  0  0  0  0
    2.8638   -0.5690   -1.7138 C   0  0  0  0  0
   -3.5388   -4.6233   -0.8718 C   0  0  0  0  0
   -2.6141   -2.9070   -3.1322 C   0  0  0  0  0
   -2.8844   -5.1884   -2.1311 C   0  0  0  0  0
   -3.1937   -4.3059   -3.3335 C   0  0  0  0  0
    3.4304    0.9105   -5.9045 C   0  0  0  0  0
    5.1003    1.7406   -4.2369 C   0  0  0  0  0
    2.2956    1.4383   -5.0270 C   0  0  0  0  0
    3.9613    2.2707   -3.3677 C   0  0  0  0  0
    4.7139    1.7260   -5.7196 C   0  0  0  0  0
    5.8468    1.1586   -6.5713 C   0  0  0  0  0
    0.8250    2.4703   -2.6036 N   0  0  0  0  0
    2.7235    1.5229   -3.6268 N   0  0  0  0  0
   -1.1165    1.4463    0.4020 N   0  0  0  0  0
    2.6311   -1.6464   -2.3790 O   0  0  0  0  0
    3.9676   -0.3699   -1.0819 O   0  0  0  0  0
   -3.5957    1.7317    1.0553 O   0  0  0  0  0
   -2.9527    2.0086   -1.3549 O   0  0  0  0  0
   -2.7678    1.3324   -0.0767 S   0  0  0  0  0
  1  7  1  0  0  0
  2 10  1  0  0  0
  3  9  1  0  0  0
  4  8  1  0  0  0
  5 23  1  0  0  0
  6 11  1  0  0  0
  6 12  1  0  0  0
  9 25  1  0  0  0
 11 24  1  0  0  0
 12 26  1  0  0  0
 13  7  1  0  0  0
 13 15  1  0  0  0
 14  8  1  0  0  0
 14 16  1  0  0  0
 15 16  1  0  0  0
 17 19  1  0  0  0
 17 21  1  0  0  0
 18 20  1  0  0  0
 18 21  1  0  0  0
 19 24  1  0  0  0
 20 24  1  0  0  0
 21 22  1  0  0  0
 30 10  1  0  0  0
 30 25  1  0  0  0
  1  2  2  0  0  0
  3  6  2  0  0  0
  4 10  2  0  0  0
  5  9  2  0  0  0
  7  8  2  0  0  0
 11 23  2  0  0  0
 12 27  2  0  0  0
 30 28  2  0  0  0
 30 29  2  0  0  0
M  CHG  1  26  -1
M  END
> <rmsd>
0.515063286

$$$$
ZINC35397332


 30 33  0  0  0  0  0  0  0  0999 V2000
   -3.2644   -2.5827    0.4430 C   0  0  0  0  0
   -3.2258   -1.2065    0.6650 C   0  0  0  0  0
    1.0037    0.7941   -0.3285 C   0  0  0  0  0
   -2.3873   -0.8728   -1.5725 C   0  0  0  0  0
   -0.0199    2.6931   -1.3298 C   0  0  0  0  0
    2.0441    0.9104   -1.2436 C   0  0  0  0  0
   -2.8571   -3.1201   -0.7875 C   0  0  0  0  0
   -2.4314   -2.2546   -1.8122 C   0  0  0  0  0
   -0.0518    1.6984   -0.3658 C   0  0  0  0  0
   -2.7852   -0.3521   -0.3415 C   0  0  0  0  0
    1.9821    1.9402   -2.1684 C   0  0  0  0  0
    3.1611   -0.0489   -1.2020 C   0  0  0  0  0
   -2.9454   -4.6107   -1.0006 C   0  0  0  0  0
   -1.9615   -2.7819   -3.1449 C   0  0  0  0  0
   -2.1371   -5.0971   -2.2020 C   0  0  0  0  0
   -2.4065   -4.2178   -3.4162 C   0  0  0  0  0
    3.9823    1.5544   -5.3041 C   0  0  0  0  0
    5.4232    2.4797   -3.4804 C   0  0  0  0  0
    2.7344    1.9735   -4.5273 C   0  0  0  0  0
    4.1717    2.9010   -2.7122 C   0  0  0  0  0
    5.1743    2.4645   -4.9922 C   0  0  0  0  0
    6.4212    2.0053   -5.7441 C   0  0  0  0  0
    0.9735    2.8378   -2.2353 N   0  0  0  0  0
    3.0262    2.0635   -3.0928 N   0  0  0  0  0
   -1.1424    1.6040    0.5669 N   0  0  0  0  0
    3.0764   -1.1276   -1.8995 O   0  0  0  0  0
    4.1839    0.2238   -0.4694 O   0  0  0  0  0
   -3.6853    1.6803    0.9945 O   0  0  0  0  0
   -2.8520    2.0551   -1.3431 O   0  0  0  0  0
   -2.7294    1.3701   -0.0621 S   0  0  0  0  0
  1  7  1  0  0  0
  2 10  1  0  0  0
  3  9  1  0  0  0
  4  8  1  0  0  0
  5 23  1  0  0  0
  6 11  1  0  0  0
  6 12  1  0  0  0
  9 25  1  0  0  0
 11 24  1  0  0  0
 12 26  1  0  0  0
 13  7  1  0  0  0
 13 15  1  0  0  0
 14  8  1  0  0  0
 14 16  1  0  0  0
 15 16  1  0  0  0
 17 19  1  0  0  0
 17 21  1  0  0  0
 18 20  1  0  0  0
 18 21  1  0  0  0
 19 24  1  0  0  0
 20 24  1  0  0  0
 21 22  1  0  0  0
 30 10  1  0  0  0
 30 25  1  0  0  0
  1  2  2  0  0  0
  3  6  2  0  0  0
  4 10  2  0  0  0
  5  9  2  0  0  0
  7  8  2  0  0  0
 11 23  2  0  0  0
 12 27  2  0  0  0
 30 28  2  0  0  0
 30 29  2  0  0  0
M  CHG  1  26  -1
M  END
> <rmsd>
0.697629452

$$$$
ZINC17902791


 29 31  0  0  0  0  0  0  0  0999 V2000
   -7.6152    4.1313   -1.5324 C   0  0  0  0  0
   -7.2109    2.9892   -0.8414 C   0  0  0  0  0
   -2.3480   -2.7777    0.0565 C   0  0  0  0  0
   -3.0008   -0.9891   -1.4308 C   0  0  0  0  0
   -6.6940    5.1413   -1.8100 C   0  0  0  0  0
   -5.8854    2.8570   -0.4277 C   0  0  0  0  0
   -3.6075   -2.7398    0.6547 C   0  0  0  0  0
   -4.2602   -0.9512   -0.8326 C   0  0  0  0  0
   -2.0446   -1.9023   -0.9862 C   0  0  0  0  0
   -5.3685    5.0091   -1.3962 C   0  0  0  0  0
   -4.9641    3.8670   -0.7052 C   0  0  0  0  0
   -4.5637   -1.8267    0.2103 C   0  0  0  0  0
   -0.7424   -1.9423   -1.6057 C   0  0  0  0  0
    1.3459   -1.5345   -2.0318 C   0  0  0  0  0
   -0.3335    1.0390   -0.4138 C   0  0  0  0  0
   -3.0718    2.6411    0.4177 C   0  0  0  0  0
   -4.1095    6.9796   -0.4913 C   0  0  0  0  0
   -4.4034    6.1068   -1.7074 C   0  0  0  0  0
    0.3379   -0.2764   -0.0820 C   0  0  0  0  0
   -1.5976    2.8809    0.6800 C   0  0  0  0  0
   -0.3998   -2.6765   -2.6400 N   0  0  0  0  0
    0.9288   -2.4171   -2.9111 N   0  0  0  0  0
    0.3263   -1.2073   -1.1903 N   0  0  0  0  0
   -3.6240    3.7142   -0.2767 N   0  0  0  0  0
   -0.8927    1.6204    0.7149 N   0  0  0  0  0
   -0.3703    1.5136   -1.5459 O   0  0  0  0  0
   -3.6427    1.6178    0.7816 O   0  0  0  0  0
    2.9122   -0.8892   -1.9388 S   0  0  0  0  0
   -6.1175   -1.7798    0.9482 Cl  0  0  0  0  0
  1  2  1  0  0  0
  3  9  1  0  0  0
  4  8  1  0  0  0
  5 10  1  0  0  0
  6 11  1  0  0  0
  7 12  1  0  0  0
  9 13  1  0  0  0
 11 24  1  0  0  0
 12 29  1  0  0  0
 13 23  1  0  0  0
 14 22  1  0  0  0
 14 23  1  0  0  0
 15 25  1  0  0  0
 16 24  1  0  0  0
 17 18  1  0  0  0
 18 10  1  0  0  0
 19 15  1  0  0  0
 19 23  1  0  0  0
 20 16  1  0  0  0
 20 25  1  0  0  0
 21 22  1  0  0  0
  1  5  2  0  0  0
  2  6  2  0  0  0
  3  7  2  0  0  0
  4  9  2  0  0  0
  8 12  2  0  0  0
 10 11  2  0  0  0
 13 21  2  0  0  0
 14 28  2  0  0  0
 15 26  2  0  0  0
 16 27  2  0  0  0
M  CHG  1  28  -1
M  END
> <rmsd>
0.498937815

$$$$
ZINC09833656


 31 32  0  0  0  0  0  0  0  0999 V2000
   -3.7726   -3.3547   -0.2050 C   0  0  0  0  0
   -3.0081   -2.9225   -1.2886 C   0  0  0  0  0
    1.5483   -2.4748    1.8484 C   0  0  0  0  0
    2.2029   -1.3350   -0.1787 C   0  0  0  0  0
   -4.1120   -1.0600    0.4706 C   0  0  0  0  0
    3.4352   -3.2741    0.5686 C   0  0  0  0  0
    1.3558   -1.4484    0.9236 C   0  0  0  0  0
   -4.3247   -2.4233    0.6747 C   0  0  0  0  0
   -2.7954   -1.5592   -1.4926 C   0  0  0  0  0
   -3.3474   -0.6279   -0.6129 C   0  0  0  0  0
    2.5881   -3.3876    1.6709 C   0  0  0  0  0
    3.2427   -2.2477   -0.3563 C   0  0  0  0  0
    0.2484   -0.4759    1.1128 C   0  0  0  0  0
   -3.6259    1.8037   -0.0195 C   0  0  0  0  0
   -0.6882    2.6699   -0.3157 C   0  0  0  0  0
   -5.1413   -2.8861    1.8339 C   0  0  0  0  0
   -1.9708   -1.1253   -2.6611 C   0  0  0  0  0
   -3.1714    3.1465   -0.5801 C   0  0  0  0  0
   -1.8366    3.6176   -0.0115 C   0  0  0  0  0
   -3.1438    0.7595   -0.8038 N   0  0  0  0  0
    0.4471    0.7737    0.5572 N   0  0  0  0  0
   -0.5461    1.7151    0.6755 N   0  0  0  0  0
    2.7844   -4.4320    2.6129 N   0  0  0  0  0
    4.1051   -2.1321   -1.4785 N   0  0  0  0  0
    2.0113   -4.5156    3.5976 O   0  0  0  0  0
    3.9144   -1.2016   -2.2984 O   0  0  0  0  0
   -0.7627   -0.8250    1.7169 O   0  0  0  0  0
   -4.3182    1.7183    0.9893 O   0  0  0  0  0
    0.0116    2.7567   -1.3211 O   0  0  0  0  0
    3.7252   -5.2427    2.4345 O   0  0  0  0  0
    5.0345   -2.9632   -1.6193 O   0  0  0  0  0
  1  8  1  0  0  0
  2  9  1  0  0  0
  3  7  1  0  0  0
  4 12  1  0  0  0
  5 10  1  0  0  0
  6 11  1  0  0  0
  7 13  1  0  0  0
 10 20  1  0  0  0
 11 23  1  0  0  0
 12 24  1  0  0  0
 13 21  1  0  0  0
 14 20  1  0  0  0
 15 22  1  0  0  0
 16  8  1  0  0  0
 17  9  1  0  0  0
 18 14  1  0  0  0
 18 19  1  0  0  0
 19 15  1  0  0  0
 21 22  1  0  0  0
 23 25  1  0  0  0
 24 26  1  0  0  0
  1  2  2  0  0  0
  3 11  2  0  0  0
  4  7  2  0  0  0
  5  8  2  0  0  0
  6 12  2  0  0  0
  9 10  2  0  0  0
 13 27  2  0  0  0
 14 28  2  0  0  0
 15 29  2  0  0  0
 23 30  2  0  0  0
 24 31  2  0  0  0
M  CHG  4  23   1  24   1  25  -1  26  -1
M  END
> <rmsd>
0.478559971

$$$$
ZINC12574747


 31 32  0  0  0  0  0  0  0  0999 V2000
   -4.3261   -2.4228    0.6750 C   0  0  0  0  0
   -4.1116   -1.0597    0.4720 C   0  0  0  0  0
    1.5488   -2.4741    1.8497 C   0  0  0  0  0
    2.2034   -1.3343   -0.1774 C   0  0  0  0  0
   -3.0113   -2.9224   -1.2893 C   0  0  0  0  0
    3.4358   -3.2733    0.5700 C   0  0  0  0  0
    1.3563   -1.4478    0.9249 C   0  0  0  0  0
   -3.7759   -3.3542   -0.2056 C   0  0  0  0  0
   -2.7968   -1.5592   -1.4925 C   0  0  0  0  0
   -3.3470   -0.6278   -0.6118 C   0  0  0  0  0
    2.5887   -3.3868    1.6723 C   0  0  0  0  0
    3.2433   -2.2470   -0.3549 C   0  0  0  0  0
    0.2487   -0.4754    1.1140 C   0  0  0  0  0
   -3.6257    1.8038   -0.0184 C   0  0  0  0  0
   -0.6882    2.6703   -0.3146 C   0  0  0  0  0
   -4.0044   -4.8120    0.0112 C   0  0  0  0  0
   -1.9727   -1.1254   -2.6611 C   0  0  0  0  0
   -3.1713    3.1466   -0.5791 C   0  0  0  0  0
   -1.8367    3.6179   -0.0105 C   0  0  0  0  0
   -3.1435    0.7596   -0.8027 N   0  0  0  0  0
    0.4474    0.7742    0.5583 N   0  0  0  0  0
   -0.5460    1.7155    0.6766 N   0  0  0  0  0
    2.7851   -4.4311    2.6143 N   0  0  0  0  0
    4.1057   -2.1313   -1.4771 N   0  0  0  0  0
    2.0120   -4.5148    3.5991 O   0  0  0  0  0
    3.9149   -1.2009   -2.2971 O   0  0  0  0  0
   -0.7623   -0.8246    1.7181 O   0  0  0  0  0
   -4.3181    1.7184    0.9904 O   0  0  0  0  0
    0.0117    2.7571   -1.3200 O   0  0  0  0  0
    3.7260   -5.2418    2.4360 O   0  0  0  0  0
    5.0351   -2.9624   -1.6179 O   0  0  0  0  0
  1  8  1  0  0  0
  2 10  1  0  0  0
  3  7  1  0  0  0
  4 12  1  0  0  0
  5  9  1  0  0  0
  6 11  1  0  0  0
  7 13  1  0  0  0
 10 20  1  0  0  0
 11 23  1  0  0  0
 12 24  1  0  0  0
 13 21  1  0  0  0
 14 20  1  0  0  0
 15 22  1  0  0  0
 16  8  1  0  0  0
 17  9  1  0  0  0
 18 14  1  0  0  0
 18 19  1  0  0  0
 19 15  1  0  0  0
 21 22  1  0  0  0
 23 25  1  0  0  0
 24 26  1  0  0  0
  1  2  2  0  0  0
  3 11  2  0  0  0
  4  7  2  0  0  0
  5  8  2  0  0  0
  6 12  2  0  0  0
  9 10  2  0  0  0
 13 27  2  0  0  0
 14 28  2  0  0  0
 15 29  2  0  0  0
 23 30  2  0  0  0
 24 31  2  0  0  0
M  CHG  4  23   1  24   1  25  -1  26  -1
M  END
> <rmsd>
0.478204936

$$$$
ZINC09356524


 30 32  0  0  0  0  0  0  0  0999 V2000
   -4.7331   -9.3308   -1.6816 C   0  0  0  0  0
   -4.9008   -8.6785   -2.9031 C   0  0  0  0  0
   -4.2385   -8.6323   -0.5801 C   0  0  0  0  0
    0.7127    2.4556   -2.7198 C   0  0  0  0  0
   -4.5739   -7.3278   -3.0231 C   0  0  0  0  0
   -3.9116   -7.2816   -0.7001 C   0  0  0  0  0
   -0.1846    2.4609   -1.6519 C   0  0  0  0  0
   -3.2295   -2.2930   -1.7467 C   0  0  0  0  0
    1.5540    1.3610   -2.9184 C   0  0  0  0  0
   -3.0020   -0.9297   -1.5592 C   0  0  0  0  0
   -3.5065   -1.1687    0.7914 C   0  0  0  0  0
   -4.0793   -6.6294   -1.9216 C   0  0  0  0  0
    0.6010    0.2768   -0.9810 C   0  0  0  0  0
   -0.2405    1.3715   -0.7825 C   0  0  0  0  0
   -3.5957   -3.0942   -0.6651 C   0  0  0  0  0
    1.4983    0.2716   -2.0490 C   0  0  0  0  0
   -3.7342   -2.5321    0.6039 C   0  0  0  0  0
   -3.1405   -0.3676   -0.2902 C   0  0  0  0  0
   -3.7382   -5.2212   -2.0470 C   0  0  0  0  0
    0.5365   -0.8902   -0.0442 C   0  0  0  0  0
   -3.8263   -4.4797   -0.8587 N   0  0  0  0  0
   -1.1733    1.3985    0.3117 N   0  0  0  0  0
    2.3672   -0.8323   -2.2723 N   0  0  0  0  0
    3.4975   -0.8325   -1.7303 O   0  0  0  0  0
   -3.4287   -4.7205   -3.1372 O   0  0  0  0  0
    1.9765   -1.7720   -3.0041 O   0  0  0  0  0
   -3.5932    1.7532    1.1322 O   0  0  0  0  0
   -3.1051    2.0311   -1.3139 O   0  0  0  0  0
   -4.0855   -3.2926    1.6507 F   0  0  0  0  0
   -2.8557    1.3389   -0.0554 S   0  0  0  0  0
  1  2  1  0  0  0
  3  6  1  0  0  0
  4  7  1  0  0  0
  5 12  1  0  0  0
  8 15  1  0  0  0
  9 16  1  0  0  0
 10 18  1  0  0  0
 11 17  1  0  0  0
 12 19  1  0  0  0
 13 14  1  0  0  0
 14 22  1  0  0  0
 15 21  1  0  0  0
 16 23  1  0  0  0
 17 29  1  0  0  0
 19 21  1  0  0  0
 20 13  1  0  0  0
 23 24  1  0  0  0
 30 18  1  0  0  0
 30 22  1  0  0  0
  1  3  2  0  0  0
  2  5  2  0  0  0
  4  9  2  0  0  0
  6 12  2  0  0  0
  7 14  2  0  0  0
  8 10  2  0  0  0
 11 18  2  0  0  0
 13 16  2  0  0  0
 15 17  2  0  0  0
 19 25  2  0  0  0
 23 26  2  0  0  0
 30 27  2  0  0  0
 30 28  2  0  0  0
M  CHG  2  23   1  24  -1
M  END
> <rmsd>
0.395936489

$$$$
ZINC09356524


 30 32  0  0  0  0  0  0  0  0999 V2000
   -4.5532   -9.4029   -1.3748 C   0  0  0  0  0
   -4.2401   -9.1836   -0.0333 C   0  0  0  0  0
   -4.7501   -8.3196   -2.2311 C   0  0  0  0  0
    0.7131    2.4554   -2.7184 C   0  0  0  0  0
   -4.1241   -7.8809    0.4519 C   0  0  0  0  0
   -4.6341   -7.0170   -1.7460 C   0  0  0  0  0
   -0.1843    2.4606   -1.6506 C   0  0  0  0  0
   -3.7348   -2.5321    0.6041 C   0  0  0  0  0
    1.5544    1.3606   -2.9169 C   0  0  0  0  0
   -3.5071   -1.1688    0.7918 C   0  0  0  0  0
   -3.0022   -0.9295   -1.5587 C   0  0  0  0  0
   -4.3211   -6.7977   -0.4045 C   0  0  0  0  0
    0.6010    0.2765   -0.9798 C   0  0  0  0  0
   -0.2404    1.3713   -0.7813 C   0  0  0  0  0
   -3.5960   -3.0941   -0.6650 C   0  0  0  0  0
    1.4984    0.2712   -2.0477 C   0  0  0  0  0
   -3.2298   -2.2928   -1.7464 C   0  0  0  0  0
   -3.1408   -0.3675   -0.2895 C   0  0  0  0  0
   -4.2004   -5.4396    0.1014 C   0  0  0  0  0
    0.5362   -0.8907   -0.0430 C   0  0  0  0  0
   -3.8281   -4.4801   -0.8528 N   0  0  0  0  0
   -1.1735    1.3983    0.3127 N   0  0  0  0  0
    2.3671   -0.8328   -2.2709 N   0  0  0  0  0
    3.4974   -0.8332   -1.7288 O   0  0  0  0  0
   -4.3817   -5.1715    1.2974 O   0  0  0  0  0
    1.9764   -1.7725   -3.0028 O   0  0  0  0  0
   -3.5934    1.7532    1.1329 O   0  0  0  0  0
   -3.1049    2.0312   -1.3132 O   0  0  0  0  0
   -3.0936   -2.8222   -2.9706 F   0  0  0  0  0
   -2.8558    1.3389   -0.0547 S   0  0  0  0  0
  1  2  1  0  0  0
  3  6  1  0  0  0
  4  7  1  0  0  0
  5 12  1  0  0  0
  8 15  1  0  0  0
  9 16  1  0  0  0
 10 18  1  0  0  0
 11 17  1  0  0  0
 12 19  1  0  0  0
 13 14  1  0  0  0
 14 22  1  0  0  0
 15 21  1  0  0  0
 16 23  1  0  0  0
 17 29  1  0  0  0
 19 21  1  0  0  0
 20 13  1  0  0  0
 23 24  1  0  0  0
 30 18  1  0  0  0
 30 22  1  0  0  0
  1  3  2  0  0  0
  2  5  2  0  0  0
  4  9  2  0  0  0
  6 12  2  0  0  0
  7 14  2  0  0  0
  8 10  2  0  0  0
 11 18  2  0  0  0
 13 16  2  0  0  0
 15 17  2  0  0  0
 19 25  2  0  0  0
 23 26  2  0  0  0
 30 27  2  0  0  0
 30 28  2  0  0  0
M  CHG  2  23   1  24  -1
M  END
> <rmsd>
0.395875633

$$$$
ZINC32962199


 30 32  0  0  0  0  0  0  0  0999 V2000
   -3.2472   -2.5870    0.4354 C   0  0  0  0  0
   -2.4258   -2.2394   -1.8099 C   0  0  0  0  0
    1.0211    2.8846   -2.1900 C   0  0  0  0  0
   -0.0383    2.7675   -1.2903 C   0  0  0  0  0
   -3.2073   -1.2115    0.6630 C   0  0  0  0  0
   -2.3859   -0.8638   -1.5823 C   0  0  0  0  0
    0.9957    0.8075   -0.3279 C   0  0  0  0  0
   -2.8564   -3.1010   -0.8011 C   0  0  0  0  0
    2.0551    0.9246   -1.2277 C   0  0  0  0  0
    2.0678    1.9632   -2.1588 C   0  0  0  0  0
   -0.0511    1.7290   -0.3592 C   0  0  0  0  0
   -2.7767   -0.3498   -0.3459 C   0  0  0  0  0
   -2.8983   -4.5353   -1.0380 C   0  0  0  0  0
    3.1493   -0.0630   -1.1733 C   0  0  0  0  0
    2.8208    4.5363   -5.1994 C   0  0  0  0  0
    4.0956    4.8506   -4.4136 C   0  0  0  0  0
    2.8894    3.2676   -6.0521 C   0  0  0  0  0
    4.0874    4.3918   -2.9556 C   0  0  0  0  0
    2.2740    2.0233   -5.4119 C   0  0  0  0  0
    4.3122    2.8945   -2.7580 C   0  0  0  0  0
    3.1394    1.3649   -4.3398 C   0  0  0  0  0
   -2.6846   -5.4395    0.1411 C   0  0  0  0  0
    3.1207    2.0981   -3.0698 N   0  0  0  0  0
   -1.1358    1.6094    0.5614 N   0  0  0  0  0
    3.0535   -1.1293   -1.8865 O   0  0  0  0  0
   -3.0911   -5.0648   -2.1345 O   0  0  0  0  0
    4.1597    0.1773   -0.4145 O   0  0  0  0  0
   -3.6865    1.6731    0.9981 O   0  0  0  0  0
   -2.8582    2.0605   -1.3392 O   0  0  0  0  0
   -2.7295    1.3957   -0.0568 S   0  0  0  0  0
  1  8  1  0  0  0
  2  6  1  0  0  0
  3 10  1  0  0  0
  4 11  1  0  0  0
  5 12  1  0  0  0
  7  9  1  0  0  0
  8 13  1  0  0  0
  9 14  1  0  0  0
 10 23  1  0  0  0
 11 24  1  0  0  0
 14 25  1  0  0  0
 15 16  1  0  0  0
 15 17  1  0  0  0
 16 18  1  0  0  0
 17 19  1  0  0  0
 18 20  1  0  0  0
 19 21  1  0  0  0
 20 23  1  0  0  0
 21 23  1  0  0  0
 22 13  1  0  0  0
 30 12  1  0  0  0
 30 24  1  0  0  0
  1  5  2  0  0  0
  2  8  2  0  0  0
  3  4  2  0  0  0
  6 12  2  0  0  0
  7 11  2  0  0  0
  9 10  2  0  0  0
 13 26  2  0  0  0
 14 27  2  0  0  0
 30 28  2  0  0  0
 30 29  2  0  0  0
M  CHG  1  25  -1
M  END
> <rmsd>
0.705714345

$$$$
ZINC32962199


 30 32  0  0  0  0  0  0  0  0999 V2000
   -3.5426   -2.5644    0.5416 C   0  0  0  0  0
   -2.9118   -2.3078   -1.7764 C   0  0  0  0  0
    0.8690    2.5250   -2.5707 C   0  0  0  0  0
   -0.1069    2.5016   -1.5744 C   0  0  0  0  0
   -3.3754   -1.1937    0.7389 C   0  0  0  0  0
   -2.7447   -0.9371   -1.5792 C   0  0  0  0  0
    0.8588    0.4774   -0.6759 C   0  0  0  0  0
   -3.3107   -3.1215   -0.7160 C   0  0  0  0  0
    1.8347    0.5007   -1.6723 C   0  0  0  0  0
    1.8397    1.5245   -2.6198 C   0  0  0  0  0
   -0.1120    1.4779   -0.6270 C   0  0  0  0  0
   -2.9765   -0.3800   -0.3216 C   0  0  0  0  0
   -3.4853   -4.5506   -0.9213 C   0  0  0  0  0
    2.8497   -0.5691   -1.7015 C   0  0  0  0  0
    2.4995    3.9960   -5.7647 C   0  0  0  0  0
    3.8630    4.2181   -5.1068 C   0  0  0  0  0
    2.3894    2.7162   -6.5962 C   0  0  0  0  0
    3.9568    3.7778   -3.6460 C   0  0  0  0  0
    1.7428    1.5314   -5.8785 C   0  0  0  0  0
    4.0830    2.2698   -3.4423 C   0  0  0  0  0
    2.6519    0.8193   -4.8795 C   0  0  0  0  0
   -3.2320   -5.4554    0.2494 C   0  0  0  0  0
    2.8095    1.5660   -3.6270 N   0  0  0  0  0
   -1.1112    1.4543    0.3926 N   0  0  0  0  0
    2.6052   -1.6326   -2.3828 O   0  0  0  0  0
   -3.8207   -5.0757   -1.9851 O   0  0  0  0  0
    3.9426   -0.4003   -1.0445 O   0  0  0  0  0
   -3.5969    1.7232    1.0632 O   0  0  0  0  0
   -2.9650    2.0178   -1.3478 O   0  0  0  0  0
   -2.7678    1.3595   -0.0707 S   0  0  0  0  0
  1  8  1  0  0  0
  2  6  1  0  0  0
  3 10  1  0  0  0
  4 11  1  0  0  0
  5 12  1  0  0  0
  7  9  1  0  0  0
  8 13  1  0  0  0
  9 14  1  0  0  0
 10 23  1  0  0  0
 11 24  1  0  0  0
 14 25  1  0  0  0
 15 16  1  0  0  0
 15 17  1  0  0  0
 16 18  1  0  0  0
 17 19  1  0  0  0
 18 20  1  0  0  0
 19 21  1  0  0  0
 20 23  1  0  0  0
 21 23  1  0  0  0
 22 13  1  0  0  0
 30 12  1  0  0  0
 30 24  1  0  0  0
  1  5  2  0  0  0
  2  8  2  0  0  0
  3  4  2  0  0  0
  6 12  2  0  0  0
  7 11  2  0  0  0
  9 10  2  0  0  0
 13 26  2  0  0  0
 14 27  2  0  0  0
 30 28  2  0  0  0
 30 29  2  0  0  0
M  CHG  1  25  -1
M  END
> <rmsd>
0.524711967

$$$$
ZINC12881641


 29 31  0  0  0  0  0  0  0  0999 V2000
    1.6229    6.2107    0.1645 C   0  0  0  0  0
    0.5612    6.2802   -0.7374 C   0  0  0  0  0
    1.7513    5.1065    1.0070 C   0  0  0  0  0
   -3.6560   -1.8430    0.2658 C   0  0  0  0  0
   -0.3723    5.2454   -0.7967 C   0  0  0  0  0
    0.8178    4.0717    0.9478 C   0  0  0  0  0
   -2.2527   -2.0712    0.1720 C   0  0  0  0  0
   -4.2164   -1.5543   -0.9589 C   0  0  0  0  0
   -0.2440    4.1412    0.0458 C   0  0  0  0  0
   -1.7940   -1.9484   -1.1213 C   0  0  0  0  0
   -0.4653   -2.1090   -1.5774 C   0  0  0  0  0
    1.6714   -1.8530   -1.8576 C   0  0  0  0  0
   -0.0038    0.9954   -0.7447 C   0  0  0  0  0
   -3.6608    2.4416    0.5920 C   0  0  0  0  0
   -6.4682    2.8887   -0.7399 C   0  0  0  0  0
   -5.1359    1.9304   -2.6526 C   0  0  0  0  0
    0.5688   -0.2892   -0.1854 C   0  0  0  0  0
   -2.4322    3.2560    0.9443 C   0  0  0  0  0
   -1.2578    3.0169   -0.0179 C   0  0  0  0  0
   -5.2324    2.0991   -1.1440 C   0  0  0  0  0
   -0.0747   -2.9950   -2.4656 N   0  0  0  0  0
    1.2847   -2.8322   -2.6438 N   0  0  0  0  0
    0.6018   -1.3686   -1.1676 N   0  0  0  0  0
   -0.6232    1.7430    0.2445 N   0  0  0  0  0
    0.0785    1.3147   -1.9277 O   0  0  0  0  0
   -4.2065    1.6293    1.3259 O   0  0  0  0  0
   -4.0645    2.7770   -0.6698 O   0  0  0  0  0
    3.2562   -1.2652   -1.7102 S   0  0  0  0  0
   -3.0526   -1.5592   -2.2151 S   0  0  0  0  0
  1  2  1  0  0  0
  3  6  1  0  0  0
  4  7  1  0  0  0
  5  9  1  0  0  0
  8 29  1  0  0  0
 10 11  1  0  0  0
 10 29  1  0  0  0
 11 23  1  0  0  0
 12 22  1  0  0  0
 12 23  1  0  0  0
 13 24  1  0  0  0
 14 27  1  0  0  0
 15 20  1  0  0  0
 16 20  1  0  0  0
 17 13  1  0  0  0
 17 23  1  0  0  0
 18 14  1  0  0  0
 18 19  1  0  0  0
 19  9  1  0  0  0
 19 24  1  0  0  0
 20 27  1  0  0  0
 21 22  1  0  0  0
  1  3  2  0  0  0
  2  5  2  0  0  0
  4  8  2  0  0  0
  6  9  2  0  0  0
  7 10  2  0  0  0
 11 21  2  0  0  0
 12 28  2  0  0  0
 13 25  2  0  0  0
 14 26  2  0  0  0
M  CHG  1  28  -1
M  END
> <rmsd>
0.694207966

$$$$
ZINC32962110


 30 32  0  0  0  0  0  0  0  0999 V2000
   -2.9077   -2.3086   -1.7762 C   0  0  0  0  0
   -3.5411   -2.5658    0.5411 C   0  0  0  0  0
    0.8685    2.5243   -2.5710 C   0  0  0  0  0
   -0.1073    2.5009   -1.5746 C   0  0  0  0  0
   -2.7428   -0.9377   -1.5790 C   0  0  0  0  0
   -3.3761   -1.1948    0.7382 C   0  0  0  0  0
    0.8584    0.4767   -0.6762 C   0  0  0  0  0
    1.8342    0.5000   -1.6726 C   0  0  0  0  0
   -3.3069   -3.1227   -0.7161 C   0  0  0  0  0
    1.8393    1.5238   -2.6200 C   0  0  0  0  0
   -0.1124    1.4771   -0.6273 C   0  0  0  0  0
   -2.9769   -0.3808   -0.3218 C   0  0  0  0  0
    2.8493   -0.5699   -1.7018 C   0  0  0  0  0
    3.9945    3.4613   -5.6686 C   0  0  0  0  0
    3.2187    2.5640   -6.6317 C   0  0  0  0  0
    4.8312    2.6800   -4.6553 C   0  0  0  0  0
    2.1225    1.7192   -5.9853 C   0  0  0  0  0
    4.0663    2.2830   -3.3913 C   0  0  0  0  0
    2.6280    0.8092   -4.8680 C   0  0  0  0  0
   -2.1569   -5.2580   -1.3972 C   0  0  0  0  0
   -4.5673   -4.8760   -2.0138 C   0  0  0  0  0
   -3.9364   -5.3981    0.3337 C   0  0  0  0  0
   -3.4854   -4.5882   -0.9271 C   0  0  0  0  0
    2.8100    1.5652   -3.6282 N   0  0  0  0  0
   -1.1116    1.4536    0.3923 N   0  0  0  0  0
    2.6047   -1.6333   -2.3830 O   0  0  0  0  0
    3.9421   -0.4011   -1.0447 O   0  0  0  0  0
   -3.5973    1.7224    1.0630 O   0  0  0  0  0
   -2.9653    2.0171   -1.3481 O   0  0  0  0  0
   -2.7682    1.3588   -0.0710 S   0  0  0  0  0
  1  9  1  0  0  0
  2  6  1  0  0  0
  3 10  1  0  0  0
  4 11  1  0  0  0
  5 12  1  0  0  0
  7  8  1  0  0  0
  8 13  1  0  0  0
 10 24  1  0  0  0
 11 25  1  0  0  0
 13 26  1  0  0  0
 14 15  1  0  0  0
 14 16  1  0  0  0
 15 17  1  0  0  0
 16 18  1  0  0  0
 17 19  1  0  0  0
 18 24  1  0  0  0
 19 24  1  0  0  0
 20 23  1  0  0  0
 21 23  1  0  0  0
 22 23  1  0  0  0
 23  9  1  0  0  0
 30 12  1  0  0  0
 30 25  1  0  0  0
  1  5  2  0  0  0
  2  9  2  0  0  0
  3  4  2  0  0  0
  6 12  2  0  0  0
  7 11  2  0  0  0
  8 10  2  0  0  0
 13 27  2  0  0  0
 30 28  2  0  0  0
 30 29  2  0  0  0
M  CHG  1  26  -1
M  END
> <rmsd>
0.525557637

$$$$
ZINC32962110


 30 32  0  0  0  0  0  0  0  0999 V2000
   -2.4220   -2.2398   -1.8095 C   0  0  0  0  0
   -3.2457   -2.5883    0.4349 C   0  0  0  0  0
    1.0203    2.8841   -2.1906 C   0  0  0  0  0
   -0.0390    2.7669   -1.2908 C   0  0  0  0  0
   -2.3844   -0.8641   -1.5821 C   0  0  0  0  0
   -3.2079   -1.2126    0.6622 C   0  0  0  0  0
    0.9951    0.8068   -0.3286 C   0  0  0  0  0
    2.0544    0.9239   -1.2285 C   0  0  0  0  0
   -2.8528   -3.1019   -0.8010 C   0  0  0  0  0
    2.0670    1.9625   -2.1595 C   0  0  0  0  0
   -0.0516    1.7282   -0.3598 C   0  0  0  0  0
   -2.7773   -0.3505   -0.3462 C   0  0  0  0  0
    3.1487   -0.0638   -1.1743 C   0  0  0  0  0
    4.3370    4.1172   -4.9698 C   0  0  0  0  0
    3.7269    3.1809   -6.0117 C   0  0  0  0  0
    5.1348    3.3840   -3.8912 C   0  0  0  0  0
    2.6452    2.2421   -5.4809 C   0  0  0  0  0
    4.2894    2.9056   -2.7094 C   0  0  0  0  0
    3.1147    1.3531   -4.3314 C   0  0  0  0  0
   -1.4803   -5.1290   -1.3952 C   0  0  0  0  0
   -3.8455   -4.9227   -2.2313 C   0  0  0  0  0
   -3.3963   -5.4383    0.1590 C   0  0  0  0  0
   -2.8952   -4.5726   -1.0445 C   0  0  0  0  0
    3.1208    2.0976   -3.0714 N   0  0  0  0  0
   -1.1362    1.6086    0.5610 N   0  0  0  0  0
    3.0527   -1.1299   -1.8876 O   0  0  0  0  0
    4.1592    0.1765   -0.4155 O   0  0  0  0  0
   -3.6869    1.6723    0.9980 O   0  0  0  0  0
   -2.8588    2.0599   -1.3395 O   0  0  0  0  0
   -2.7300    1.3950   -0.0571 S   0  0  0  0  0
  1  9  1  0  0  0
  2  6  1  0  0  0
  3 10  1  0  0  0
  4 11  1  0  0  0
  5 12  1  0  0  0
  7  8  1  0  0  0
  8 13  1  0  0  0
 10 24  1  0  0  0
 11 25  1  0  0  0
 13 26  1  0  0  0
 14 15  1  0  0  0
 14 16  1  0  0  0
 15 17  1  0  0  0
 16 18  1  0  0  0
 17 19  1  0  0  0
 18 24  1  0  0  0
 19 24  1  0  0  0
 20 23  1  0  0  0
 21 23  1  0  0  0
 22 23  1  0  0  0
 23  9  1  0  0  0
 30 12  1  0  0  0
 30 25  1  0  0  0
  1  5  2  0  0  0
  2  9  2  0  0  0
  3  4  2  0  0  0
  6 12  2  0  0  0
  7 11  2  0  0  0
  8 10  2  0  0  0
 13 27  2  0  0  0
 30 28  2  0  0  0
 30 29  2  0  0  0
M  CHG  1  26  -1
M  END
> <rmsd>
0.706473649

$$$$
ZINC32962182


 30 32  0  0  0  0  0  0  0  0999 V2000
   -3.5401   -2.5666    0.5397 C   0  0  0  0  0
   -2.9066   -2.3076   -1.7773 C   0  0  0  0  0
    0.8689    2.5235   -2.5712 C   0  0  0  0  0
   -0.1069    2.5004   -1.5748 C   0  0  0  0  0
   -3.3757   -1.1958    0.7379 C   0  0  0  0  0
   -2.7423   -0.9367   -1.5791 C   0  0  0  0  0
    0.8586    0.4761   -0.6762 C   0  0  0  0  0
    1.8344    0.4992   -1.6728 C   0  0  0  0  0
   -3.3054   -3.1226   -0.7180 C   0  0  0  0  0
    1.8395    1.5229   -2.6203 C   0  0  0  0  0
   -0.1121    1.4767   -0.6273 C   0  0  0  0  0
   -2.9768   -0.3807   -0.3215 C   0  0  0  0  0
    2.8492   -0.5707   -1.7020 C   0  0  0  0  0
    2.4994    3.9941   -5.7655 C   0  0  0  0  0
    3.8629    4.2160   -5.1077 C   0  0  0  0  0
    2.3890    2.7142   -6.5968 C   0  0  0  0  0
    3.9568    3.7759   -3.6469 C   0  0  0  0  0
    1.7424    1.5296   -5.8790 C   0  0  0  0  0
    4.0828    2.2678   -3.4431 C   0  0  0  0  0
    2.6514    0.8174   -4.8800 C   0  0  0  0  0
   -2.1668   -5.2837   -1.3397 C   0  0  0  0  0
   -4.5824   -4.9090   -1.9557 C   0  0  0  0  0
   -3.4790   -4.5884   -0.9297 C   0  0  0  0  0
    2.8092    1.5641   -3.6276 N   0  0  0  0  0
   -1.1112    1.4534    0.3923 N   0  0  0  0  0
    2.6045   -1.6343   -2.3831 O   0  0  0  0  0
    3.9422   -0.4021   -1.0450 O   0  0  0  0  0
   -3.5968    1.7226    1.0632 O   0  0  0  0  0
   -2.9650    2.0170   -1.3479 O   0  0  0  0  0
   -2.7678    1.3588   -0.0708 S   0  0  0  0  0
  1  9  1  0  0  0
  2  6  1  0  0  0
  3 10  1  0  0  0
  4 11  1  0  0  0
  5 12  1  0  0  0
  7  8  1  0  0  0
  8 13  1  0  0  0
 10 24  1  0  0  0
 11 25  1  0  0  0
 13 26  1  0  0  0
 14 15  1  0  0  0
 14 16  1  0  0  0
 15 17  1  0  0  0
 16 18  1  0  0  0
 17 19  1  0  0  0
 18 20  1  0  0  0
 19 24  1  0  0  0
 20 24  1  0  0  0
 21 23  1  0  0  0
 22 23  1  0  0  0
 23  9  1  0  0  0
 30 12  1  0  0  0
 30 25  1  0  0  0
  1  5  2  0  0  0
  2  9  2  0  0  0
  3  4  2  0  0  0
  6 12  2  0  0  0
  7 11  2  0  0  0
  8 10  2  0  0  0
 13 27  2  0  0  0
 30 28  2  0  0  0
 30 29  2  0  0  0
M  CHG  1  26  -1
M  END
> <rmsd>
0.52590543

$$$$
ZINC32962182


 30 32  0  0  0  0  0  0  0  0999 V2000
   -3.2444   -2.5890    0.4335 C   0  0  0  0  0
   -2.4205   -2.2387   -1.8104 C   0  0  0  0  0
    1.0212    2.8833   -2.1904 C   0  0  0  0  0
   -0.0381    2.7663   -1.2907 C   0  0  0  0  0
   -3.2073   -1.2135    0.6619 C   0  0  0  0  0
   -2.3835   -0.8631   -1.5821 C   0  0  0  0  0
    0.9957    0.8062   -0.3282 C   0  0  0  0  0
    2.0550    0.9231   -1.2281 C   0  0  0  0  0
   -2.8508   -3.1017   -0.8027 C   0  0  0  0  0
    2.0678    1.9616   -2.1592 C   0  0  0  0  0
   -0.0510    1.7278   -0.3595 C   0  0  0  0  0
   -2.7769   -0.3505   -0.3459 C   0  0  0  0  0
    3.1491   -0.0647   -1.1738 C   0  0  0  0  0
    2.8211    4.5346   -5.2001 C   0  0  0  0  0
    4.0959    4.8487   -4.4144 C   0  0  0  0  0
    2.8893    3.2658   -6.0526 C   0  0  0  0  0
    4.0878    4.3900   -2.9563 C   0  0  0  0  0
    2.2738    2.0216   -5.4124 C   0  0  0  0  0
    4.3124    2.8926   -2.7587 C   0  0  0  0  0
    3.1391    1.3631   -4.3403 C   0  0  0  0  0
   -1.4931   -5.1565   -1.3389 C   0  0  0  0  0
   -3.8629   -4.9578   -2.1754 C   0  0  0  0  0
   -2.8882   -4.5723   -1.0464 C   0  0  0  0  0
    3.1207    2.0963   -3.0703 N   0  0  0  0  0
   -1.1356    1.6084    0.5611 N   0  0  0  0  0
    3.0531   -1.1310   -1.8869 O   0  0  0  0  0
    4.1596    0.1755   -0.4150 O   0  0  0  0  0
   -3.6863    1.6726    0.9980 O   0  0  0  0  0
   -2.8581    2.0597   -1.3394 O   0  0  0  0  0
   -2.7294    1.3949   -0.0569 S   0  0  0  0  0
  1  9  1  0  0  0
  2  6  1  0  0  0
  3 10  1  0  0  0
  4 11  1  0  0  0
  5 12  1  0  0  0
  7  8  1  0  0  0
  8 13  1  0  0  0
 10 24  1  0  0  0
 11 25  1  0  0  0
 13 26  1  0  0  0
 14 15  1  0  0  0
 14 16  1  0  0  0
 15 17  1  0  0  0
 16 18  1  0  0  0
 17 19  1  0  0  0
 18 20  1  0  0  0
 19 24  1  0  0  0
 20 24  1  0  0  0
 21 23  1  0  0  0
 22 23  1  0  0  0
 23  9  1  0  0  0
 30 12  1  0  0  0
 30 25  1  0  0  0
  1  5  2  0  0  0
  2  9  2  0  0  0
  3  4  2  0  0  0
  6 12  2  0  0  0
  7 11  2  0  0  0
  8 10  2  0  0  0
 13 27  2  0  0  0
 30 28  2  0  0  0
 30 29  2  0  0  0
M  CHG  1  26  -1
M  END
> <rmsd>
0.707174063

$$$$
ZINC33253640


 30 32  0  0  0  0  0  0  0  0999 V2000
   -3.2370   -2.5905    0.4245 C   0  0  0  0  0
   -2.4211   -2.2325   -1.8212 C   0  0  0  0  0
   -0.0687    2.7413   -1.3420 C   0  0  0  0  0
    0.9796    2.8472   -2.2560 C   0  0  0  0  0
   -3.2023   -1.2155    0.6563 C   0  0  0  0  0
   -2.3865   -0.8575   -1.5895 C   0  0  0  0  0
    0.9944    0.8141   -0.3457 C   0  0  0  0  0
    2.0427    0.9198   -1.2597 C   0  0  0  0  0
   -2.8463   -3.0991   -0.8143 C   0  0  0  0  0
   -0.0613    1.7248   -0.3867 C   0  0  0  0  0
    2.0353    1.9363   -2.2148 C   0  0  0  0  0
   -2.7771   -0.3490   -0.3507 C   0  0  0  0  0
    3.1473   -0.0554   -1.1942 C   0  0  0  0  0
   -2.5211   -7.0506   -2.6779 C   0  0  0  0  0
   -1.5352   -6.6801   -1.5741 C   0  0  0  0  0
   -3.9111   -6.4843   -2.4041 C   0  0  0  0  0
   -1.4832   -5.1703   -1.3477 C   0  0  0  0  0
   -3.8708   -4.9734   -2.1818 C   0  0  0  0  0
   -2.8816   -4.5913   -1.0653 C   0  0  0  0  0
    3.9727    4.3160   -3.0953 C   0  0  0  0  0
    2.3373    2.1920   -5.4520 C   0  0  0  0  0
    4.2463    2.8722   -2.8443 C   0  0  0  0  0
    3.0230    1.3644   -4.4188 C   0  0  0  0  0
   -1.1428    1.6157    0.5550 N   0  0  0  0  0
    3.0869    2.0600   -3.1502 N   0  0  0  0  0
    3.0547   -1.1389   -1.8814 O   0  0  0  0  0
    4.1633    0.2124   -0.4521 O   0  0  0  0  0
   -3.6823    1.6678    1.0056 O   0  0  0  0  0
   -2.8732    2.0637   -1.3371 O   0  0  0  0  0
   -2.7332    1.3723   -0.0613 S   0  0  0  0  0
  1  9  1  0  0  0
  2  6  1  0  0  0
  3 10  1  0  0  0
  4 11  1  0  0  0
  5 12  1  0  0  0
  7  8  1  0  0  0
  8 13  1  0  0  0
 10 24  1  0  0  0
 11 25  1  0  0  0
 13 26  1  0  0  0
 14 15  1  0  0  0
 14 16  1  0  0  0
 15 17  1  0  0  0
 16 18  1  0  0  0
 17 19  1  0  0  0
 18 19  1  0  0  0
 19  9  1  0  0  0
 20 22  1  0  0  0
 21 23  1  0  0  0
 22 25  1  0  0  0
 23 25  1  0  0  0
 30 12  1  0  0  0
 30 24  1  0  0  0
  1  5  2  0  0  0
  2  9  2  0  0  0
  3  4  2  0  0  0
  6 12  2  0  0  0
  7 10  2  0  0  0
  8 11  2  0  0  0
 13 27  2  0  0  0
 30 28  2  0  0  0
 30 29  2  0  0  0
M  CHG  1  26  -1
M  END
> <rmsd>
0.711547971

$$$$
ZINC33253640


 30 32  0  0  0  0  0  0  0  0999 V2000
   -3.5407   -2.5675    0.5351 C   0  0  0  0  0
   -2.9079   -2.3062   -1.7819 C   0  0  0  0  0
   -0.1354    2.4676   -1.6186 C   0  0  0  0  0
    0.8299    2.4765   -2.6254 C   0  0  0  0  0
   -3.3763   -1.1968    0.7346 C   0  0  0  0  0
   -2.7436   -0.9355   -1.5824 C   0  0  0  0  0
    0.8585    0.4742   -0.6829 C   0  0  0  0  0
    1.8239    0.4830   -1.6897 C   0  0  0  0  0
   -3.3064   -3.1223   -0.7232 C   0  0  0  0  0
   -0.1211    1.4665   -0.6473 C   0  0  0  0  0
    1.8096    1.4841   -2.6609 C   0  0  0  0  0
   -2.9777   -0.3808   -0.3242 C   0  0  0  0  0
    2.8492   -0.5773   -1.7041 C   0  0  0  0  0
   -3.4667   -7.1114   -2.5272 C   0  0  0  0  0
   -2.3578   -6.8071   -1.5245 C   0  0  0  0  0
   -4.7767   -6.4313   -2.1409 C   0  0  0  0  0
   -2.1660   -5.3035   -1.3347 C   0  0  0  0  0
   -4.5968   -4.9258   -1.9541 C   0  0  0  0  0
   -3.4825   -4.6100   -0.9394 C   0  0  0  0  0
    3.8405    3.6879   -3.7610 C   0  0  0  0  0
    1.8334    1.6717   -5.9167 C   0  0  0  0  0
    4.0208    2.2301   -3.5062 C   0  0  0  0  0
    2.5432    0.8052   -4.9328 C   0  0  0  0  0
   -1.1171    1.4574    0.3900 N   0  0  0  0  0
    2.7777    1.5101   -3.6896 N   0  0  0  0  0
    2.6087   -1.6587   -2.3578 O   0  0  0  0  0
    3.9468   -0.3825   -1.0622 O   0  0  0  0  0
   -3.5926    1.7201    1.0666 O   0  0  0  0  0
   -2.9724    2.0185   -1.3471 O   0  0  0  0  0
   -2.7715    1.3350   -0.0753 S   0  0  0  0  0
  1  9  1  0  0  0
  2  6  1  0  0  0
  3 10  1  0  0  0
  4 11  1  0  0  0
  5 12  1  0  0  0
  7  8  1  0  0  0
  8 13  1  0  0  0
 10 24  1  0  0  0
 11 25  1  0  0  0
 13 26  1  0  0  0
 14 15  1  0  0  0
 14 16  1  0  0  0
 15 17  1  0  0  0
 16 18  1  0  0  0
 17 19  1  0  0  0
 18 19  1  0  0  0
 19  9  1  0  0  0
 20 22  1  0  0  0
 21 23  1  0  0  0
 22 25  1  0  0  0
 23 25  1  0  0  0
 30 12  1  0  0  0
 30 24  1  0  0  0
  1  5  2  0  0  0
  2  9  2  0  0  0
  3  4  2  0  0  0
  6 12  2  0  0  0
  7 10  2  0  0  0
  8 11  2  0  0  0
 13 27  2  0  0  0
 30 28  2  0  0  0
 30 29  2  0  0  0
M  CHG  1  26  -1
M  END
> <rmsd>
0.527880132

$$$$
ZINC32962167


 30 32  0  0  0  0  0  0  0  0999 V2000
    1.0214    2.8842   -2.1898 C   0  0  0  0  0
   -0.0380    2.7672   -1.2902 C   0  0  0  0  0
    0.9954    0.8067   -0.3281 C   0  0  0  0  0
   -2.6213   -2.6129    0.4843 C   0  0  0  0  0
   -3.0418   -2.2134   -1.8610 C   0  0  0  0  0
    2.0549    0.9236   -1.2279 C   0  0  0  0  0
   -2.8497   -3.1009   -0.8023 C   0  0  0  0  0
   -2.5852   -1.2372    0.7122 C   0  0  0  0  0
   -3.0057   -0.8376   -1.6331 C   0  0  0  0  0
    2.0679    1.9624   -2.1587 C   0  0  0  0  0
   -0.0511    1.7284   -0.3593 C   0  0  0  0  0
   -2.7773   -0.3496   -0.3466 C   0  0  0  0  0
    3.1488   -0.0643   -1.1737 C   0  0  0  0  0
    2.8218    4.5360   -5.1989 C   0  0  0  0  0
    4.0966    4.8498   -4.4129 C   0  0  0  0  0
    2.8900    3.2674   -6.0517 C   0  0  0  0  0
    4.0883    4.3907   -2.9550 C   0  0  0  0  0
    2.2743    2.0231   -5.4119 C   0  0  0  0  0
    4.3126    2.8932   -2.7577 C   0  0  0  0  0
    3.1394    1.3643   -4.3399 C   0  0  0  0  0
   -2.8873   -4.5719   -1.0462 C   0  0  0  0  0
   -2.3371   -0.7518    2.1036 C   0  0  0  0  0
   -3.2153    0.0829   -2.7915 C   0  0  0  0  0
    3.1209    2.0972   -3.0697 N   0  0  0  0  0
   -1.1358    1.6089    0.5612 N   0  0  0  0  0
    3.0528   -1.1304   -1.8871 O   0  0  0  0  0
    4.1593    0.1756   -0.4147 O   0  0  0  0  0
   -3.6866    1.6733    0.9978 O   0  0  0  0  0
   -2.8581    2.0609   -1.3394 O   0  0  0  0  0
   -2.7296    1.3958   -0.0571 S   0  0  0  0  0
  1 10  1  0  0  0
  2 11  1  0  0  0
  3  6  1  0  0  0
  4  7  1  0  0  0
  5  9  1  0  0  0
  6 13  1  0  0  0
  8 12  1  0  0  0
 10 24  1  0  0  0
 11 25  1  0  0  0
 13 26  1  0  0  0
 14 15  1  0  0  0
 14 16  1  0  0  0
 15 17  1  0  0  0
 16 18  1  0  0  0
 17 19  1  0  0  0
 18 20  1  0  0  0
 19 24  1  0  0  0
 20 24  1  0  0  0
 21  7  1  0  0  0
 22  8  1  0  0  0
 23  9  1  0  0  0
 30 12  1  0  0  0
 30 25  1  0  0  0
  1  2  2  0  0  0
  3 11  2  0  0  0
  4  8  2  0  0  0
  5  7  2  0  0  0
  6 10  2  0  0  0
  9 12  2  0  0  0
 13 27  2  0  0  0
 30 28  2  0  0  0
 30 29  2  0  0  0
M  CHG  1  26  -1
M  END
> <rmsd>
0.707735538

$$$$
ZINC32962167


 30 32  0  0  0  0  0  0  0  0999 V2000
    0.8691    2.5245   -2.5708 C   0  0  0  0  0
   -0.1068    2.5013   -1.5745 C   0  0  0  0  0
    0.8584    0.4767   -0.6763 C   0  0  0  0  0
   -2.9187   -2.6388    0.5328 C   0  0  0  0  0
   -3.5262   -2.2341   -1.7703 C   0  0  0  0  0
    1.8342    0.4999   -1.6727 C   0  0  0  0  0
   -3.3042   -3.1219   -0.7176 C   0  0  0  0  0
   -2.7552   -1.2677    0.7306 C   0  0  0  0  0
   -3.3627   -0.8629   -1.5725 C   0  0  0  0  0
    1.8396    1.5238   -2.6200 C   0  0  0  0  0
   -0.1122    1.4774   -0.6272 C   0  0  0  0  0
   -2.9772   -0.3798   -0.3221 C   0  0  0  0  0
    2.8489   -0.5702   -1.7021 C   0  0  0  0  0
    2.5000    3.9956   -5.7646 C   0  0  0  0  0
    3.8635    4.2171   -5.1067 C   0  0  0  0  0
    2.3895    2.7159   -6.5963 C   0  0  0  0  0
    3.9572    3.7767   -3.6459 C   0  0  0  0  0
    1.7427    1.5312   -5.8788 C   0  0  0  0  0
    4.0830    2.2686   -3.4425 C   0  0  0  0  0
    2.6515    0.8187   -4.8798 C   0  0  0  0  0
   -3.4779   -4.5881   -0.9295 C   0  0  0  0  0
   -2.3404   -0.7875    2.0836 C   0  0  0  0  0
   -3.6089    0.0579   -2.7233 C   0  0  0  0  0
    2.8093    1.5651   -3.6273 N   0  0  0  0  0
   -1.1114    1.4540    0.3923 N   0  0  0  0  0
    2.6042   -1.6335   -2.3834 O   0  0  0  0  0
    3.9419   -0.4018   -1.0450 O   0  0  0  0  0
   -3.5970    1.7234    1.0630 O   0  0  0  0  0
   -2.9650    2.0182   -1.3479 O   0  0  0  0  0
   -2.7680    1.3597   -0.0709 S   0  0  0  0  0
  1 10  1  0  0  0
  2 11  1  0  0  0
  3  6  1  0  0  0
  4  7  1  0  0  0
  5  9  1  0  0  0
  6 13  1  0  0  0
  8 12  1  0  0  0
 10 24  1  0  0  0
 11 25  1  0  0  0
 13 26  1  0  0  0
 14 15  1  0  0  0
 14 16  1  0  0  0
 15 17  1  0  0  0
 16 18  1  0  0  0
 17 19  1  0  0  0
 18 20  1  0  0  0
 19 24  1  0  0  0
 20 24  1  0  0  0
 21  7  1  0  0  0
 22  8  1  0  0  0
 23  9  1  0  0  0
 30 12  1  0  0  0
 30 25  1  0  0  0
  1  2  2  0  0  0
  3 11  2  0  0  0
  4  8  2  0  0  0
  5  7  2  0  0  0
  6 10  2  0  0  0
  9 12  2  0  0  0
 13 27  2  0  0  0
 30 28  2  0  0  0
 30 29  2  0  0  0
M  CHG  1  26  -1
M  END
> <rmsd>
0.526603997

$$$$
ZINC33253444


 30 32  0  0  0  0  0  0  0  0999 V2000
   -2.4220   -2.2389   -1.8099 C   0  0  0  0  0
   -3.2460   -2.5876    0.4344 C   0  0  0  0  0
    1.0209    2.8846   -2.1896 C   0  0  0  0  0
   -0.0385    2.7674   -1.2899 C   0  0  0  0  0
   -2.3842   -0.8633   -1.5822 C   0  0  0  0  0
   -3.2082   -1.2120    0.6621 C   0  0  0  0  0
    0.9952    0.8070   -0.3280 C   0  0  0  0  0
    2.0546    0.9242   -1.2277 C   0  0  0  0  0
   -2.8530   -3.1011   -0.8016 C   0  0  0  0  0
    2.0675    1.9630   -2.1585 C   0  0  0  0  0
   -0.0514    1.7287   -0.3591 C   0  0  0  0  0
   -2.7773   -0.3499   -0.3463 C   0  0  0  0  0
    3.1488   -0.0636   -1.1735 C   0  0  0  0  0
    4.0932    1.6326   -5.2842 C   0  0  0  0  0
    5.5258    2.5001   -3.4257 C   0  0  0  0  0
    2.8421    2.0453   -4.5090 C   0  0  0  0  0
    4.2712    2.9152   -2.6591 C   0  0  0  0  0
    5.2909    2.5234   -4.9397 C   0  0  0  0  0
    6.5402    2.0701   -5.6909 C   0  0  0  0  0
   -1.4808   -5.1283   -1.3959 C   0  0  0  0  0
   -3.8458   -4.9215   -2.2323 C   0  0  0  0  0
   -3.3968   -5.4376    0.1580 C   0  0  0  0  0
   -2.8955   -4.5717   -1.0452 C   0  0  0  0  0
    3.1214    2.0982   -3.0701 N   0  0  0  0  0
   -1.1361    1.6090    0.5616 N   0  0  0  0  0
    3.0529   -1.1296   -1.8870 O   0  0  0  0  0
    4.1592    0.1765   -0.4145 O   0  0  0  0  0
   -3.6868    1.6728    0.9982 O   0  0  0  0  0
   -2.8585    2.0607   -1.3391 O   0  0  0  0  0
   -2.7299    1.3957   -0.0568 S   0  0  0  0  0
  1  9  1  0  0  0
  2  6  1  0  0  0
  3 10  1  0  0  0
  4 11  1  0  0  0
  5 12  1  0  0  0
  7  8  1  0  0  0
  8 13  1  0  0  0
 10 24  1  0  0  0
 11 25  1  0  0  0
 13 26  1  0  0  0
 14 16  1  0  0  0
 14 18  1  0  0  0
 15 17  1  0  0  0
 15 18  1  0  0  0
 16 24  1  0  0  0
 17 24  1  0  0  0
 18 19  1  0  0  0
 20 23  1  0  0  0
 21 23  1  0  0  0
 22 23  1  0  0  0
 23  9  1  0  0  0
 30 12  1  0  0  0
 30 25  1  0  0  0
  1  5  2  0  0  0
  2  9  2  0  0  0
  3  4  2  0  0  0
  6 12  2  0  0  0
  7 11  2  0  0  0
  8 10  2  0  0  0
 13 27  2  0  0  0
 30 28  2  0  0  0
 30 29  2  0  0  0
M  CHG  1  26  -1
M  END
> <rmsd>
0.706517994

$$$$
ZINC33253444


 30 32  0  0  0  0  0  0  0  0999 V2000
   -2.9078   -2.3076   -1.7767 C   0  0  0  0  0
   -3.5414   -2.5651    0.5406 C   0  0  0  0  0
    0.8689    2.5250   -2.5703 C   0  0  0  0  0
   -0.1070    2.5016   -1.5740 C   0  0  0  0  0
   -2.7427   -0.9368   -1.5792 C   0  0  0  0  0
   -3.3763   -1.1942    0.7380 C   0  0  0  0  0
    0.8584    0.4771   -0.6759 C   0  0  0  0  0
    1.8343    0.5006   -1.6723 C   0  0  0  0  0
   -3.3071   -3.1218   -0.7168 C   0  0  0  0  0
    1.8396    1.5245   -2.6194 C   0  0  0  0  0
   -0.1123    1.4777   -0.6267 C   0  0  0  0  0
   -2.9770   -0.3801   -0.3220 C   0  0  0  0  0
    2.8493   -0.5694   -1.7016 C   0  0  0  0  0
    3.5306    1.0007   -5.9131 C   0  0  0  0  0
    5.1943    1.7739   -4.2124 C   0  0  0  0  0
    2.3936    1.5191   -5.0328 C   0  0  0  0  0
    4.0532    2.2949   -3.3403 C   0  0  0  0  0
    4.8205    1.7985   -5.6981 C   0  0  0  0  0
    5.9549    1.2400   -6.5536 C   0  0  0  0  0
   -2.1574   -5.2572   -1.3982 C   0  0  0  0  0
   -4.5676   -4.8748   -2.0149 C   0  0  0  0  0
   -3.9368   -5.3974    0.3325 C   0  0  0  0  0
   -3.4857   -4.5873   -0.9280 C   0  0  0  0  0
    2.8103    1.5661   -3.6274 N   0  0  0  0  0
   -1.1115    1.4540    0.3928 N   0  0  0  0  0
    2.6048   -1.6326   -2.3831 O   0  0  0  0  0
    3.9422   -0.4009   -1.0444 O   0  0  0  0  0
   -3.5972    1.7229    1.0633 O   0  0  0  0  0
   -2.9651    2.0180   -1.3476 O   0  0  0  0  0
   -2.7681    1.3595   -0.0706 S   0  0  0  0  0
  1  9  1  0  0  0
  2  6  1  0  0  0
  3 10  1  0  0  0
  4 11  1  0  0  0
  5 12  1  0  0  0
  7  8  1  0  0  0
  8 13  1  0  0  0
 10 24  1  0  0  0
 11 25  1  0  0  0
 13 26  1  0  0  0
 14 16  1  0  0  0
 14 18  1  0  0  0
 15 17  1  0  0  0
 15 18  1  0  0  0
 16 24  1  0  0  0
 17 24  1  0  0  0
 18 19  1  0  0  0
 20 23  1  0  0  0
 21 23  1  0  0  0
 22 23  1  0  0  0
 23  9  1  0  0  0
 30 12  1  0  0  0
 30 25  1  0  0  0
  1  5  2  0  0  0
  2  9  2  0  0  0
  3  4  2  0  0  0
  6 12  2  0  0  0
  7 11  2  0  0  0
  8 10  2  0  0  0
 13 27  2  0  0  0
 30 28  2  0  0  0
 30 29  2  0  0  0
M  CHG  1  26  -1
M  END
> <rmsd>
0.525612712

$$$$
ZINC33253440


 30 32  0  0  0  0  0  0  0  0999 V2000
   -3.5403   -2.5665    0.5393 C   0  0  0  0  0
   -2.9069   -2.3074   -1.7777 C   0  0  0  0  0
    0.8684    2.5238   -2.5718 C   0  0  0  0  0
   -0.1074    2.5006   -1.5753 C   0  0  0  0  0
   -3.3760   -1.1956    0.7375 C   0  0  0  0  0
   -2.7427   -0.9365   -1.5796 C   0  0  0  0  0
    0.8582    0.4764   -0.6768 C   0  0  0  0  0
    1.8339    0.4995   -1.6733 C   0  0  0  0  0
   -3.3057   -3.1224   -0.7183 C   0  0  0  0  0
    1.8390    1.5232   -2.6208 C   0  0  0  0  0
   -0.1125    1.4770   -0.6278 C   0  0  0  0  0
   -2.9772   -0.3807   -0.3219 C   0  0  0  0  0
    2.8488   -0.5705   -1.7025 C   0  0  0  0  0
    3.5294    0.9983   -5.9147 C   0  0  0  0  0
    5.1934    1.7721   -4.2144 C   0  0  0  0  0
    2.3925    1.5170   -5.0343 C   0  0  0  0  0
    4.0525    2.2934   -3.3423 C   0  0  0  0  0
    4.8193    1.7962   -5.7001 C   0  0  0  0  0
    5.9536    1.2375   -6.5556 C   0  0  0  0  0
   -1.7025   -5.2766    0.7641 C   0  0  0  0  0
   -2.4692   -6.9059   -0.9741 C   0  0  0  0  0
   -3.4792   -4.5883   -0.9301 C   0  0  0  0  0
   -2.2036   -5.4284   -0.6744 C   0  0  0  0  0
    2.8095    1.5645   -3.6290 N   0  0  0  0  0
   -1.1116    1.4536    0.3919 N   0  0  0  0  0
    2.6042   -1.6339   -2.3836 O   0  0  0  0  0
    3.9418   -0.4017   -1.0455 O   0  0  0  0  0
   -3.5972    1.7227    1.0628 O   0  0  0  0  0
   -2.9655    2.0171   -1.3484 O   0  0  0  0  0
   -2.7682    1.3590   -0.0712 S   0  0  0  0  0
  1  9  1  0  0  0
  2  6  1  0  0  0
  3 10  1  0  0  0
  4 11  1  0  0  0
  5 12  1  0  0  0
  7  8  1  0  0  0
  8 13  1  0  0  0
 10 24  1  0  0  0
 11 25  1  0  0  0
 13 26  1  0  0  0
 14 16  1  0  0  0
 14 18  1  0  0  0
 15 17  1  0  0  0
 15 18  1  0  0  0
 16 24  1  0  0  0
 17 24  1  0  0  0
 18 19  1  0  0  0
 20 23  1  0  0  0
 21 23  1  0  0  0
 22  9  1  0  0  0
 22 23  1  0  0  0
 30 12  1  0  0  0
 30 25  1  0  0  0
  1  5  2  0  0  0
  2  9  2  0  0  0
  3  4  2  0  0  0
  6 12  2  0  0  0
  7 11  2  0  0  0
  8 10  2  0  0  0
 13 27  2  0  0  0
 30 28  2  0  0  0
 30 29  2  0  0  0
M  CHG  1  26  -1
M  END
> <rmsd>
0.526240826

$$$$
ZINC33253440


 30 32  0  0  0  0  0  0  0  0999 V2000
   -3.2447   -2.5889    0.4331 C   0  0  0  0  0
   -2.4210   -2.2385   -1.8110 C   0  0  0  0  0
    1.0205    2.8835   -2.1912 C   0  0  0  0  0
   -0.0388    2.7666   -1.2913 C   0  0  0  0  0
   -3.2076   -1.2134    0.6615 C   0  0  0  0  0
   -2.3841   -0.8629   -1.5827 C   0  0  0  0  0
    0.9951    0.8064   -0.3290 C   0  0  0  0  0
    2.0544    0.9234   -1.2290 C   0  0  0  0  0
   -2.8513   -3.1015   -0.8031 C   0  0  0  0  0
    2.0671    1.9619   -2.1600 C   0  0  0  0  0
   -0.0515    1.7281   -0.3602 C   0  0  0  0  0
   -2.7774   -0.3504   -0.3464 C   0  0  0  0  0
    3.1485   -0.0644   -1.1747 C   0  0  0  0  0
    4.0922    1.6306   -5.2860 C   0  0  0  0  0
    5.5251    2.4985   -3.4280 C   0  0  0  0  0
    2.8413    2.0435   -4.5106 C   0  0  0  0  0
    4.2707    2.9139   -2.6612 C   0  0  0  0  0
    5.2900    2.5215   -4.9419 C   0  0  0  0  0
    6.5392    2.0680   -5.6932 C   0  0  0  0  0
   -1.2285   -5.1529    0.7990 C   0  0  0  0  0
   -1.7000   -6.8037   -1.0220 C   0  0  0  0  0
   -2.8887   -4.5722   -1.0469 C   0  0  0  0  0
   -1.5803   -5.3160   -0.6819 C   0  0  0  0  0
    3.1208    2.0968   -3.0719 N   0  0  0  0  0
   -1.1361    1.6087    0.5607 N   0  0  0  0  0
    3.0525   -1.1306   -1.8879 O   0  0  0  0  0
    4.1591    0.1758   -0.4159 O   0  0  0  0  0
   -3.6867    1.6726    0.9977 O   0  0  0  0  0
   -2.8587    2.0599   -1.3398 O   0  0  0  0  0
   -2.7299    1.3952   -0.0573 S   0  0  0  0  0
  1  9  1  0  0  0
  2  6  1  0  0  0
  3 10  1  0  0  0
  4 11  1  0  0  0
  5 12  1  0  0  0
  7  8  1  0  0  0
  8 13  1  0  0  0
 10 24  1  0  0  0
 11 25  1  0  0  0
 13 26  1  0  0  0
 14 16  1  0  0  0
 14 18  1  0  0  0
 15 17  1  0  0  0
 15 18  1  0  0  0
 16 24  1  0  0  0
 17 24  1  0  0  0
 18 19  1  0  0  0
 20 23  1  0  0  0
 21 23  1  0  0  0
 22  9  1  0  0  0
 22 23  1  0  0  0
 30 12  1  0  0  0
 30 25  1  0  0  0
  1  5  2  0  0  0
  2  9  2  0  0  0
  3  4  2  0  0  0
  6 12  2  0  0  0
  7 11  2  0  0  0
  8 10  2  0  0  0
 13 27  2  0  0  0
 30 28  2  0  0  0
 30 29  2  0  0  0
M  CHG  1  26  -1
M  END
> <rmsd>
0.707357764

$$$$
ZINC32962195


 30 32  0  0  0  0  0  0  0  0999 V2000
    0.8580    2.5110   -2.5857 C   0  0  0  0  0
   -0.1151    2.4921   -1.5866 C   0  0  0  0  0
    0.8575    0.4761   -0.6774 C   0  0  0  0  0
   -3.0215   -2.6495    0.5402 C   0  0  0  0  0
   -3.2600   -0.8612   -1.5876 C   0  0  0  0  0
    1.8306    0.4949   -1.6766 C   0  0  0  0  0
   -3.3065   -3.1233   -0.7404 C   0  0  0  0  0
   -2.8558   -1.2816    0.7570 C   0  0  0  0  0
   -3.4256   -2.2292   -1.8042 C   0  0  0  0  0
    1.8309    1.5124   -2.6308 C   0  0  0  0  0
   -0.1154    1.4747   -0.6324 C   0  0  0  0  0
   -2.9750   -0.3874   -0.3070 C   0  0  0  0  0
    2.8479   -0.5729   -1.7014 C   0  0  0  0  0
    2.4767    3.9644   -5.7938 C   0  0  0  0  0
    3.8415    4.1937   -5.1411 C   0  0  0  0  0
    2.3672    2.6788   -6.6165 C   0  0  0  0  0
    3.9401    3.7635   -3.6777 C   0  0  0  0  0
    1.7252    1.4974   -5.8893 C   0  0  0  0  0
    4.0702    2.2570   -3.4643 C   0  0  0  0  0
    2.6385    0.7939   -4.8879 C   0  0  0  0  0
   -3.4799   -4.5921   -0.9482 C   0  0  0  0  0
   -2.5506   -0.8067    2.1402 C   0  0  0  0  0
   -3.7305   -2.7135   -3.1839 C   0  0  0  0  0
    2.7978    1.5492   -3.6409 N   0  0  0  0  0
   -1.1118    1.4557    0.3899 N   0  0  0  0  0
    2.6039   -1.6414   -2.3749 O   0  0  0  0  0
    3.9422   -0.3974   -1.0485 O   0  0  0  0  0
   -3.5963    1.7236    1.0655 O   0  0  0  0  0
   -2.9715    2.0036   -1.3491 O   0  0  0  0  0
   -2.7694    1.3542   -0.0682 S   0  0  0  0  0
  1 10  1  0  0  0
  2 11  1  0  0  0
  3  6  1  0  0  0
  4  7  1  0  0  0
  5  9  1  0  0  0
  6 13  1  0  0  0
  8 12  1  0  0  0
 10 24  1  0  0  0
 11 25  1  0  0  0
 13 26  1  0  0  0
 14 15  1  0  0  0
 14 16  1  0  0  0
 15 17  1  0  0  0
 16 18  1  0  0  0
 17 19  1  0  0  0
 18 20  1  0  0  0
 19 24  1  0  0  0
 20 24  1  0  0  0
 21  7  1  0  0  0
 22  8  1  0  0  0
 23  9  1  0  0  0
 30 12  1  0  0  0
 30 25  1  0  0  0
  1  2  2  0  0  0
  3 11  2  0  0  0
  4  8  2  0  0  0
  5 12  2  0  0  0
  6 10  2  0  0  0
  7  9  2  0  0  0
 13 27  2  0  0  0
 30 28  2  0  0  0
 30 29  2  0  0  0
M  CHG  1  26  -1
M  END
> <rmsd>
0.528150797

$$$$
ZINC32962195


 30 32  0  0  0  0  0  0  0  0999 V2000
    1.0098    2.8737   -2.2080 C   0  0  0  0  0
   -0.0468    2.7601   -1.3045 C   0  0  0  0  0
    0.9942    0.8086   -0.3323 C   0  0  0  0  0
   -2.7210   -2.6315    0.4802 C   0  0  0  0  0
   -2.9030   -0.8267   -1.6392 C   0  0  0  0  0
    2.0508    0.9221   -1.2359 C   0  0  0  0  0
   -2.8483   -3.1014   -0.8269 C   0  0  0  0  0
   -2.6848   -1.2593    0.7277 C   0  0  0  0  0
   -2.9392   -2.1990   -1.8866 C   0  0  0  0  0
    2.0586    1.9547   -2.1737 C   0  0  0  0  0
   -0.0546    1.7276   -0.3666 C   0  0  0  0  0
   -2.7757   -0.3568   -0.3320 C   0  0  0  0  0
    3.1473   -0.0627   -1.1782 C   0  0  0  0  0
    2.7974    4.5096   -5.2332 C   0  0  0  0  0
    4.0737    4.8317   -4.4531 C   0  0  0  0  0
    2.8663    3.2355   -6.0778 C   0  0  0  0  0
    4.0707    4.3824   -2.9921 C   0  0  0  0  0
    2.2554    1.9941   -5.4278 C   0  0  0  0  0
    4.2993    2.8868   -2.7855 C   0  0  0  0  0
    3.1252    1.3445   -4.3539 C   0  0  0  0  0
   -2.8851   -4.5750   -1.0675 C   0  0  0  0  0
   -2.5470   -0.7887    2.1390 C   0  0  0  0  0
   -3.0763   -2.6789   -3.2943 C   0  0  0  0  0
    3.1086    2.0859   -3.0886 N   0  0  0  0  0
   -1.1364    1.6117    0.5578 N   0  0  0  0  0
    3.0518   -1.1339   -1.8842 O   0  0  0  0  0
    4.1594    0.1847   -0.4239 O   0  0  0  0  0
   -3.6860    1.6728    1.0014 O   0  0  0  0  0
   -2.8652    2.0468   -1.3407 O   0  0  0  0  0
   -2.7314    1.3906   -0.0544 S   0  0  0  0  0
  1 10  1  0  0  0
  2 11  1  0  0  0
  3  6  1  0  0  0
  4  7  1  0  0  0
  5  9  1  0  0  0
  6 13  1  0  0  0
  8 12  1  0  0  0
 10 24  1  0  0  0
 11 25  1  0  0  0
 13 26  1  0  0  0
 14 15  1  0  0  0
 14 16  1  0  0  0
 15 17  1  0  0  0
 16 18  1  0  0  0
 17 19  1  0  0  0
 18 20  1  0  0  0
 19 24  1  0  0  0
 20 24  1  0  0  0
 21  7  1  0  0  0
 22  8  1  0  0  0
 23  9  1  0  0  0
 30 12  1  0  0  0
 30 25  1  0  0  0
  1  2  2  0  0  0
  3 11  2  0  0  0
  4  8  2  0  0  0
  5 12  2  0  0  0
  6 10  2  0  0  0
  7  9  2  0  0  0
 13 27  2  0  0  0
 30 28  2  0  0  0
 30 29  2  0  0  0
M  CHG  1  26  -1
M  END
> <rmsd>
0.710149586

$$$$
ZINC02752691


 30 31  0  0  0  0  0  0  0  0999 V2000
   -4.2484   -2.4824    0.5553 C   0  0  0  0  0
    1.4411   -1.2246    1.2316 C   0  0  0  0  0
   -4.1065   -1.1007    0.4267 C   0  0  0  0  0
    0.4803   -0.2192    1.3394 C   0  0  0  0  0
   -3.7314   -3.3308   -0.4239 C   0  0  0  0  0
    2.2940   -1.2589    0.1282 C   0  0  0  0  0
   -2.9307   -1.4158   -1.6603 C   0  0  0  0  0
    1.2250    0.7175   -0.7595 C   0  0  0  0  0
   -3.4477   -0.5674   -0.6811 C   0  0  0  0  0
    0.3722    0.7519    0.3439 C   0  0  0  0  0
   -3.0726   -2.7974   -1.5317 C   0  0  0  0  0
    2.1858   -0.2879   -0.8673 C   0  0  0  0  0
   -3.7146    1.8147    0.0810 C   0  0  0  0  0
   -0.8757    2.7846   -0.4542 C   0  0  0  0  0
   -3.3771    3.2081   -0.4218 C   0  0  0  0  0
   -2.0000    3.6843    0.0299 C   0  0  0  0  0
   -3.3040    0.8330   -0.8108 N   0  0  0  0  0
   -0.6016    1.7707    0.4538 N   0  0  0  0  0
   -2.5483   -3.6613   -2.5293 N   0  0  0  0  0
    3.0529   -0.3244   -1.9913 N   0  0  0  0  0
   -2.6885   -4.9010   -2.3948 O   0  0  0  0  0
    3.9089   -1.2385   -2.0693 O   0  0  0  0  0
   -4.2480    1.6601    1.1756 O   0  0  0  0  0
   -0.3543    2.9742   -1.5492 O   0  0  0  0  0
   -1.9595   -3.1614   -3.5182 O   0  0  0  0  0
    2.9390    0.5581   -2.8759 O   0  0  0  0  0
   -4.2986    4.0990    0.0453 F   0  0  0  0  0
   -3.4478    3.2844   -1.7798 F   0  0  0  0  0
   -1.8173    4.9464   -0.4546 F   0  0  0  0  0
   -1.9980    3.8077    1.3864 F   0  0  0  0  0
  1  3  1  0  0  0
  2  6  1  0  0  0
  4 10  1  0  0  0
  5 11  1  0  0  0
  7  9  1  0  0  0
  8 12  1  0  0  0
  9 17  1  0  0  0
 10 18  1  0  0  0
 11 19  1  0  0  0
 12 20  1  0  0  0
 13 17  1  0  0  0
 14 18  1  0  0  0
 15 13  1  0  0  0
 15 16  1  0  0  0
 15 27  1  0  0  0
 15 28  1  0  0  0
 16 14  1  0  0  0
 16 29  1  0  0  0
 16 30  1  0  0  0
 19 21  1  0  0  0
 20 22  1  0  0  0
  1  5  2  0  0  0
  2  4  2  0  0  0
  3  9  2  0  0  0
  6 12  2  0  0  0
  7 11  2  0  0  0
  8 10  2  0  0  0
 13 23  2  0  0  0
 14 24  2  0  0  0
 19 25  2  0  0  0
 20 26  2  0  0  0
M  CHG  4  19   1  20   1  21  -1  22  -1
M  END
> <rmsd>
0.459648401

$$$$
ZINC02752691


 30 31  0  0  0  0  0  0  0  0999 V2000
   -3.0724   -2.7966   -1.5326 C   0  0  0  0  0
    1.4412   -1.2245    1.2323 C   0  0  0  0  0
   -2.9307   -1.4148   -1.6600 C   0  0  0  0  0
    0.4805   -0.2190    1.3400 C   0  0  0  0  0
   -3.7313   -3.3309   -0.4251 C   0  0  0  0  0
    2.2940   -1.2590    0.1289 C   0  0  0  0  0
   -4.1065   -1.1017    0.4272 C   0  0  0  0  0
    1.2250    0.7174   -0.7590 C   0  0  0  0  0
   -3.4477   -0.5674   -0.6801 C   0  0  0  0  0
    0.3724    0.7519    0.3444 C   0  0  0  0  0
   -4.2483   -2.4834    0.5547 C   0  0  0  0  0
    2.1858   -0.2881   -0.8667 C   0  0  0  0  0
   -3.7145    1.8148    0.0817 C   0  0  0  0  0
   -0.8756    2.7846   -0.4538 C   0  0  0  0  0
   -3.3770    3.2081   -0.4213 C   0  0  0  0  0
   -1.9998    3.6844    0.0303 C   0  0  0  0  0
   -3.3039    0.8330   -0.8100 N   0  0  0  0  0
   -0.6014    1.7708    0.4543 N   0  0  0  0  0
   -4.9171   -3.0280    1.6829 N   0  0  0  0  0
    3.0528   -0.3248   -1.9908 N   0  0  0  0  0
   -5.0320   -4.2738    1.7787 O   0  0  0  0  0
    3.9088   -1.2389   -2.0688 O   0  0  0  0  0
   -4.2478    1.6604    1.1764 O   0  0  0  0  0
   -0.3542    2.9740   -1.5488 O   0  0  0  0  0
   -5.3745   -2.2484    2.5532 O   0  0  0  0  0
    2.9389    0.5577   -2.8755 O   0  0  0  0  0
   -4.2984    4.0991    0.0458 F   0  0  0  0  0
   -3.4477    3.2843   -1.7793 F   0  0  0  0  0
   -1.8171    4.9464   -0.4544 F   0  0  0  0  0
   -1.9977    3.8079    1.3867 F   0  0  0  0  0
  1  3  1  0  0  0
  2  6  1  0  0  0
  4 10  1  0  0  0
  5 11  1  0  0  0
  7  9  1  0  0  0
  8 12  1  0  0  0
  9 17  1  0  0  0
 10 18  1  0  0  0
 11 19  1  0  0  0
 12 20  1  0  0  0
 13 17  1  0  0  0
 14 18  1  0  0  0
 15 13  1  0  0  0
 15 16  1  0  0  0
 15 27  1  0  0  0
 15 28  1  0  0  0
 16 14  1  0  0  0
 16 29  1  0  0  0
 16 30  1  0  0  0
 19 21  1  0  0  0
 20 22  1  0  0  0
  1  5  2  0  0  0
  2  4  2  0  0  0
  3  9  2  0  0  0
  6 12  2  0  0  0
  7 11  2  0  0  0
  8 10  2  0  0  0
 13 23  2  0  0  0
 14 24  2  0  0  0
 19 25  2  0  0  0
 20 26  2  0  0  0
M  CHG  4  19   1  20   1  21  -1  22  -1
M  END
> <rmsd>
0.460113466

$$$$
ZINC02752691


 30 31  0  0  0  0  0  0  0  0999 V2000
    1.4403   -1.2258    1.2305 C   0  0  0  0  0
   -3.0745   -2.7964   -1.5332 C   0  0  0  0  0
    0.4797   -0.2202    1.3384 C   0  0  0  0  0
   -2.9327   -1.4146   -1.6607 C   0  0  0  0  0
    2.2938   -1.2595    0.1276 C   0  0  0  0  0
   -3.7319   -3.3307   -0.4250 C   0  0  0  0  0
    1.2258    0.7178   -0.7593 C   0  0  0  0  0
   -4.1054   -1.1015    0.4283 C   0  0  0  0  0
    0.3724    0.7515    0.3435 C   0  0  0  0  0
   -3.4482   -0.5672   -0.6800 C   0  0  0  0  0
    2.1865   -0.2877   -0.8672 C   0  0  0  0  0
   -4.2473   -2.4832    0.5557 C   0  0  0  0  0
   -0.8756    2.7843   -0.4544 C   0  0  0  0  0
   -3.7145    1.8150    0.0818 C   0  0  0  0  0
   -1.9997    3.6843    0.0298 C   0  0  0  0  0
   -3.3770    3.2082   -0.4214 C   0  0  0  0  0
   -0.6013    1.7705    0.4537 N   0  0  0  0  0
   -3.3043    0.8332   -0.8099 N   0  0  0  0  0
    3.0541   -0.3237   -1.9908 N   0  0  0  0  0
   -4.9145   -3.0277    1.6848 N   0  0  0  0  0
    3.9100   -1.2379   -2.0691 O   0  0  0  0  0
   -5.0296   -4.2735    1.7806 O   0  0  0  0  0
   -0.3545    2.9735   -1.5496 O   0  0  0  0  0
   -4.2477    1.6608    1.1766 O   0  0  0  0  0
    2.9409    0.5595   -2.8749 O   0  0  0  0  0
   -5.3706   -2.2482    2.5559 O   0  0  0  0  0
   -1.8169    4.9462   -0.4550 F   0  0  0  0  0
   -1.9972    3.8080    1.3862 F   0  0  0  0  0
   -4.2983    4.0993    0.0458 F   0  0  0  0  0
   -3.4479    3.2844   -1.7795 F   0  0  0  0  0
  1  3  1  0  0  0
  2  6  1  0  0  0
  4 10  1  0  0  0
  5 11  1  0  0  0
  7  9  1  0  0  0
  8 12  1  0  0  0
  9 17  1  0  0  0
 10 18  1  0  0  0
 11 19  1  0  0  0
 12 20  1  0  0  0
 13 17  1  0  0  0
 14 18  1  0  0  0
 15 13  1  0  0  0
 15 16  1  0  0  0
 15 27  1  0  0  0
 15 28  1  0  0  0
 16 14  1  0  0  0
 16 29  1  0  0  0
 16 30  1  0  0  0
 19 21  1  0  0  0
 20 22  1  0  0  0
  1  5  2  0  0  0
  2  4  2  0  0  0
  3  9  2  0  0  0
  6 12  2  0  0  0
  7 11  2  0  0  0
  8 10  2  0  0  0
 13 23  2  0  0  0
 14 24  2  0  0  0
 19 25  2  0  0  0
 20 26  2  0  0  0
M  CHG  4  19   1  20   1  21  -1  22  -1
M  END
> <rmsd>
0.459744155

$$$$
ZINC32962234


 27 29  0  0  0  0  0  0  0  0999 V2000
    1.0210    2.8835   -2.1911 C   0  0  0  0  0
   -0.0384    2.7664   -1.2912 C   0  0  0  0  0
   -3.2069   -1.2129    0.6626 C   0  0  0  0  0
   -3.2478   -2.5884    0.4344 C   0  0  0  0  0
    0.9958    0.8065   -0.3287 C   0  0  0  0  0
   -2.3869   -0.8647   -1.5832 C   0  0  0  0  0
    2.0551    0.9236   -1.2287 C   0  0  0  0  0
    2.0677    1.9621   -2.1598 C   0  0  0  0  0
   -0.0510    1.7279   -0.3600 C   0  0  0  0  0
   -2.7765   -0.3510   -0.3463 C   0  0  0  0  0
   -2.8582   -3.1020   -0.8025 C   0  0  0  0  0
   -2.4277   -2.2402   -1.8113 C   0  0  0  0  0
    3.1495   -0.0640   -1.1742 C   0  0  0  0  0
    4.2771    2.9135   -2.6779 C   0  0  0  0  0
    2.8516    2.0473   -4.5120 C   0  0  0  0  0
    5.4854    2.5373   -3.5280 C   0  0  0  0  0
    4.1360    1.7178   -5.2645 C   0  0  0  0  0
    3.1204    2.0969   -3.0707 N   0  0  0  0  0
   -1.1356    1.6084    0.5607 N   0  0  0  0  0
    3.0536   -1.1304   -1.8873 O   0  0  0  0  0
    4.1600    0.1765   -0.4155 O   0  0  0  0  0
   -3.6863    1.6719    0.9976 O   0  0  0  0  0
   -2.8582    2.0592   -1.3399 O   0  0  0  0  0
    5.1697    2.6383   -4.9165 O   0  0  0  0  0
   -2.7294    1.3945   -0.0573 S   0  0  0  0  0
   -2.9297   -4.8151   -1.0229 Cl  0  0  0  0  0
   -1.9330   -2.8160   -3.3646 Cl  0  0  0  0  0
  1  2  1  0  0  0
  3 10  1  0  0  0
  4 11  1  0  0  0
  5  9  1  0  0  0
  6 12  1  0  0  0
  7  8  1  0  0  0
  7 13  1  0  0  0
  8 18  1  0  0  0
  9 19  1  0  0  0
 11 26  1  0  0  0
 12 27  1  0  0  0
 13 20  1  0  0  0
 14 16  1  0  0  0
 14 18  1  0  0  0
 15 17  1  0  0  0
 15 18  1  0  0  0
 16 24  1  0  0  0
 17 24  1  0  0  0
 25 10  1  0  0  0
 25 19  1  0  0  0
  1  8  2  0  0  0
  2  9  2  0  0  0
  3  4  2  0  0  0
  5  7  2  0  0  0
  6 10  2  0  0  0
 11 12  2  0  0  0
 13 21  2  0  0  0
 25 22  2  0  0  0
 25 23  2  0  0  0
M  CHG  1  20  -1
M  END
> <rmsd>
0.705367923

$$$$
ZINC32962234


 27 29  0  0  0  0  0  0  0  0999 V2000
    0.8690    2.5240   -2.5713 C   0  0  0  0  0
   -0.1070    2.5007   -1.5750 C   0  0  0  0  0
   -3.3751   -1.1952    0.7383 C   0  0  0  0  0
   -3.5432   -2.5657    0.5406 C   0  0  0  0  0
    0.8590    0.4766   -0.6764 C   0  0  0  0  0
   -2.7455   -0.9380   -1.5800 C   0  0  0  0  0
    1.8348    0.5000   -1.6728 C   0  0  0  0  0
    1.8398    1.5236   -2.6203 C   0  0  0  0  0
   -0.1120    1.4769   -0.6275 C   0  0  0  0  0
   -2.9763   -0.3813   -0.3220 C   0  0  0  0  0
   -3.3124   -3.1223   -0.7174 C   0  0  0  0  0
   -2.9135   -2.3085   -1.7777 C   0  0  0  0  0
    2.8500   -0.5698   -1.7019 C   0  0  0  0  0
    4.0575    2.2927   -3.3589 C   0  0  0  0  0
    2.4033    1.5204   -5.0363 C   0  0  0  0  0
    5.1478    1.8132   -4.3104 C   0  0  0  0  0
    3.5820    1.0826   -5.8985 C   0  0  0  0  0
    2.8095    1.5651   -3.6274 N   0  0  0  0  0
   -1.1111    1.4534    0.3921 N   0  0  0  0  0
    2.6056   -1.6334   -2.3830 O   0  0  0  0  0
    3.9429   -0.4009   -1.0448 O   0  0  0  0  0
   -3.5970    1.7220    1.0627 O   0  0  0  0  0
   -2.9650    2.0165   -1.3484 O   0  0  0  0  0
    4.7117    1.9230   -5.6652 O   0  0  0  0  0
   -2.7677    1.3583   -0.0712 S   0  0  0  0  0
   -3.5362   -4.8270   -0.8982 Cl  0  0  0  0  0
   -2.6129   -2.9389   -3.3591 Cl  0  0  0  0  0
  1  2  1  0  0  0
  3 10  1  0  0  0
  4 11  1  0  0  0
  5  9  1  0  0  0
  6 12  1  0  0  0
  7  8  1  0  0  0
  7 13  1  0  0  0
  8 18  1  0  0  0
  9 19  1  0  0  0
 11 26  1  0  0  0
 12 27  1  0  0  0
 13 20  1  0  0  0
 14 16  1  0  0  0
 14 18  1  0  0  0
 15 17  1  0  0  0
 15 18  1  0  0  0
 16 24  1  0  0  0
 17 24  1  0  0  0
 25 10  1  0  0  0
 25 19  1  0  0  0
  1  8  2  0  0  0
  2  9  2  0  0  0
  3  4  2  0  0  0
  5  7  2  0  0  0
  6 10  2  0  0  0
 11 12  2  0  0  0
 13 21  2  0  0  0
 25 22  2  0  0  0
 25 23  2  0  0  0
M  CHG  1  20  -1
M  END
> <rmsd>
0.524520099

$$$$
ZINC16925071


 30 32  0  0  0  0  0  0  0  0999 V2000
   -3.3332   -1.0949    0.5288 C   0  0  0  0  0
   -4.1294   -1.5531   -1.7057 C   0  0  0  0  0
   -3.5113   -2.4363    0.8674 C   0  0  0  0  0
   -4.3075   -2.8945   -1.3672 C   0  0  0  0  0
    2.2271   -1.5069    0.6094 C   0  0  0  0  0
    0.3892   -0.2996    1.6104 C   0  0  0  0  0
    1.2837    0.4100   -0.5188 C   0  0  0  0  0
    1.3164   -1.3410    1.6528 C   0  0  0  0  0
    2.2108   -0.6313   -0.4764 C   0  0  0  0  0
   -3.6423   -0.6533   -0.7577 C   0  0  0  0  0
    0.3729    0.5758    0.5245 C   0  0  0  0  0
   -3.9984   -3.3361   -0.0807 C   0  0  0  0  0
   -3.5806    1.7500   -0.1559 C   0  0  0  0  0
   -3.1643    1.1204   -2.4087 C   0  0  0  0  0
    1.3333   -2.2649    2.7984 C   0  0  0  0  0
    3.1719   -0.8067   -1.5776 C   0  0  0  0  0
   -0.7224    2.5903   -0.5167 C   0  0  0  0  0
   -3.1950    3.0965   -0.7225 C   0  0  0  0  0
   -1.8534    3.5463   -0.1679 C   0  0  0  0  0
   -3.4578    0.7306   -1.1073 N   0  0  0  0  0
   -0.5670    1.6330    0.4818 N   0  0  0  0  0
    0.4820   -2.0895    3.7487 O   0  0  0  0  0
    3.1355    0.0152   -2.5684 O   0  0  0  0  0
   -3.9689    1.6514    1.0059 O   0  0  0  0  0
   -2.9188    0.4363   -3.3910 O   0  0  0  0  0
    2.1992   -3.2182    2.8131 O   0  0  0  0  0
    4.0169   -1.7763   -1.5139 O   0  0  0  0  0
   -0.0736    2.7002   -1.5517 O   0  0  0  0  0
   -4.1689   -4.6242    0.2440 F   0  0  0  0  0
   -3.1069    2.8715   -2.5082 S   0  0  0  0  0
  1  3  1  0  0  0
  2 10  1  0  0  0
  4 12  1  0  0  0
  5  8  1  0  0  0
  6 11  1  0  0  0
  7  9  1  0  0  0
  8 15  1  0  0  0
  9 16  1  0  0  0
 10 20  1  0  0  0
 11 21  1  0  0  0
 12 29  1  0  0  0
 13 20  1  0  0  0
 14 20  1  0  0  0
 14 30  1  0  0  0
 15 22  1  0  0  0
 16 23  1  0  0  0
 17 21  1  0  0  0
 18 13  1  0  0  0
 18 19  1  0  0  0
 18 30  1  0  0  0
 19 17  1  0  0  0
  1 10  2  0  0  0
  2  4  2  0  0  0
  3 12  2  0  0  0
  5  9  2  0  0  0
  6  8  2  0  0  0
  7 11  2  0  0  0
 13 24  2  0  0  0
 14 25  2  0  0  0
 15 26  2  0  0  0
 16 27  2  0  0  0
 17 28  2  0  0  0
M  CHG  2  22  -1  23  -1
M  END
> <rmsd>
0.329825312

$$$$
ZINC16925086


 30 32  0  0  0  0  0  0  0  0999 V2000
    2.1300   -1.1136    0.9953 C   0  0  0  0  0
    1.3626   -0.6975    2.0832 C   0  0  0  0  0
   -2.9729   -1.1586    0.2152 C   0  0  0  0  0
   -4.2416   -1.5762   -1.7981 C   0  0  0  0  0
   -2.9464   -2.5274    0.4824 C   0  0  0  0  0
   -4.2150   -2.9449   -1.5310 C   0  0  0  0  0
    0.9988    0.4888   -0.4154 C   0  0  0  0  0
    1.9482   -0.5203   -0.2540 C   0  0  0  0  0
    0.4133    0.3117    1.9218 C   0  0  0  0  0
   -3.6205   -0.6830   -0.9250 C   0  0  0  0  0
    0.2314    0.9048    0.6725 C   0  0  0  0  0
   -3.5674   -3.4205   -0.3907 C   0  0  0  0  0
   -3.6255    1.6783   -0.1723 C   0  0  0  0  0
   -3.7115    1.2164   -2.5012 C   0  0  0  0  0
    2.7591   -0.9590   -1.4011 C   0  0  0  0  0
   -0.3844    0.7319    3.0896 C   0  0  0  0  0
   -1.0190    2.6136   -0.6907 C   0  0  0  0  0
   -3.5069    3.0856   -0.7089 C   0  0  0  0  0
   -2.1156    3.6409   -0.4521 C   0  0  0  0  0
   -3.6473    0.7292   -1.2012 N   0  0  0  0  0
   -0.7253    1.9308    0.4862 N   0  0  0  0  0
    2.5719   -0.3957   -2.5442 O   0  0  0  0  0
    0.0633    1.6822    3.8319 O   0  0  0  0  0
   -3.7119    1.4782    1.0371 O   0  0  0  0  0
   -3.6516    0.6147   -3.5632 O   0  0  0  0  0
    3.6293   -1.8920   -1.2247 O   0  0  0  0  0
   -1.4982    0.1326    3.3231 O   0  0  0  0  0
   -0.5041    2.4557   -1.7926 O   0  0  0  0  0
   -3.5415   -4.7349   -0.1348 F   0  0  0  0  0
   -3.8328    2.9669   -2.4772 S   0  0  0  0  0
  1  8  1  0  0  0
  2  9  1  0  0  0
  3  5  1  0  0  0
  4 10  1  0  0  0
  6 12  1  0  0  0
  7 11  1  0  0  0
  8 15  1  0  0  0
  9 16  1  0  0  0
 10 20  1  0  0  0
 11 21  1  0  0  0
 12 29  1  0  0  0
 13 20  1  0  0  0
 14 20  1  0  0  0
 14 30  1  0  0  0
 15 22  1  0  0  0
 16 23  1  0  0  0
 17 21  1  0  0  0
 18 13  1  0  0  0
 18 19  1  0  0  0
 18 30  1  0  0  0
 19 17  1  0  0  0
  1  2  2  0  0  0
  3 10  2  0  0  0
  4  6  2  0  0  0
  5 12  2  0  0  0
  7  8  2  0  0  0
  9 11  2  0  0  0
 13 24  2  0  0  0
 14 25  2  0  0  0
 15 26  2  0  0  0
 16 27  2  0  0  0
 17 28  2  0  0  0
M  CHG  2  22  -1  23  -1
M  END
> <rmsd>
0.568380952

$$$$
ZINC20209136


 30 32  0  0  0  0  0  0  0  0999 V2000
   -3.5586   -2.5712    0.5562 C   0  0  0  0  0
   -3.3899   -1.1939    0.7325 C   0  0  0  0  0
    1.8246    1.4784   -2.6414 C   0  0  0  0  0
   -0.1235    2.4643   -1.6073 C   0  0  0  0  0
    0.8597    0.4658   -0.6715 C   0  0  0  0  0
   -2.7326   -0.9285   -1.5884 C   0  0  0  0  0
    0.8475    2.4732   -2.6087 C   0  0  0  0  0
    1.8307    0.4746   -1.6728 C   0  0  0  0  0
   -2.9119   -2.2928   -1.7564 C   0  0  0  0  0
   -3.3226   -3.1103   -0.6999 C   0  0  0  0  0
   -0.1174    1.4607   -0.6387 C   0  0  0  0  0
   -2.9819   -0.3776   -0.3319 C   0  0  0  0  0
    0.8411    3.5324   -3.6308 C   0  0  0  0  0
    2.8619   -0.5754   -1.7076 C   0  0  0  0  0
   -3.6250   -5.5482   -0.3086 C   0  0  0  0  0
   -2.6252   -3.0975   -2.9839 C   0  0  0  0  0
   -3.2629   -4.4557   -2.6230 C   0  0  0  0  0
   -4.6186   -4.6086   -3.3225 C   0  0  0  0  0
   -3.8592   -7.9847    0.0298 C   0  0  0  0  0
   -3.6679   -6.8930   -0.9938 C   0  0  0  0  0
   -3.4206   -4.4534   -1.1379 N   0  0  0  0  0
   -1.1179    1.4522    0.3944 N   0  0  0  0  0
   -0.0722    4.4389   -3.5781 O   0  0  0  0  0
    2.8452   -1.4903   -0.8015 O   0  0  0  0  0
    1.7488    3.5176   -4.5442 O   0  0  0  0  0
    3.7467   -0.5440   -2.6428 O   0  0  0  0  0
   -3.7507   -5.5048    0.9166 O   0  0  0  0  0
   -3.5952    1.7220    1.0614 O   0  0  0  0  0
   -2.9640    2.0241   -1.3490 O   0  0  0  0  0
   -2.7707    1.3374   -0.0779 S   0  0  0  0  0
  1 10  1  0  0  0
  2 12  1  0  0  0
  3  7  1  0  0  0
  4 11  1  0  0  0
  5  8  1  0  0  0
  6  9  1  0  0  0
  7 13  1  0  0  0
  8 14  1  0  0  0
 10 21  1  0  0  0
 11 22  1  0  0  0
 13 23  1  0  0  0
 14 24  1  0  0  0
 15 21  1  0  0  0
 16  9  1  0  0  0
 16 17  1  0  0  0
 17 18  1  0  0  0
 17 21  1  0  0  0
 19 20  1  0  0  0
 20 15  1  0  0  0
 30 12  1  0  0  0
 30 22  1  0  0  0
  1  2  2  0  0  0
  3  8  2  0  0  0
  4  7  2  0  0  0
  5 11  2  0  0  0
  6 12  2  0  0  0
  9 10  2  0  0  0
 13 25  2  0  0  0
 14 26  2  0  0  0
 15 27  2  0  0  0
 30 28  2  0  0  0
 30 29  2  0  0  0
M  CHG  2  23  -1  24  -1
M  END
> <rmsd>
0.517601252

$$$$
ZINC20209136


 30 32  0  0  0  0  0  0  0  0999 V2000
   -2.9096   -2.3195   -1.7911 C   0  0  0  0  0
   -2.7432   -0.9479   -1.5735 C   0  0  0  0  0
    1.8126    1.4630   -2.6543 C   0  0  0  0  0
   -0.1347    2.4524   -1.6221 C   0  0  0  0  0
    0.8579    0.4652   -0.6719 C   0  0  0  0  0
   -3.3908   -1.1893    0.7527 C   0  0  0  0  0
    0.8327    2.4552   -2.6270 C   0  0  0  0  0
    1.8252    0.4680   -1.6769 C   0  0  0  0  0
   -3.5435   -2.5490    0.5305 C   0  0  0  0  0
   -3.3047   -3.1145   -0.7251 C   0  0  0  0  0
   -0.1221    1.4575   -0.6445 C   0  0  0  0  0
   -2.9799   -0.3865   -0.3108 C   0  0  0  0  0
    0.8195    3.5052   -3.6585 C   0  0  0  0  0
    2.8595   -0.5792   -1.7059 C   0  0  0  0  0
   -3.5737   -5.3484   -1.7858 C   0  0  0  0  0
   -4.0495   -3.5715    1.4974 C   0  0  0  0  0
   -3.7393   -4.8868    0.7520 C   0  0  0  0  0
   -2.4801   -5.5415    1.3320 C   0  0  0  0  0
   -3.9102   -7.5797   -2.7927 C   0  0  0  0  0
   -3.8703   -6.8013   -1.5011 C   0  0  0  0  0
   -3.5397   -4.5101   -0.6793 N   0  0  0  0  0
   -1.1188    1.4554    0.3923 N   0  0  0  0  0
   -0.0963    4.4093   -3.6107 O   0  0  0  0  0
    2.8488   -1.4860   -0.7916 O   0  0  0  0  0
    1.7239    3.4847   -4.5751 O   0  0  0  0  0
    3.7409   -0.5536   -2.6445 O   0  0  0  0  0
   -3.4035   -4.9980   -2.9550 O   0  0  0  0  0
   -3.5944    1.7238    1.0658 O   0  0  0  0  0
   -2.9729    2.0060   -1.3495 O   0  0  0  0  0
   -2.7729    1.3314   -0.0730 S   0  0  0  0  0
  1 10  1  0  0  0
  2 12  1  0  0  0
  3  7  1  0  0  0
  4 11  1  0  0  0
  5  8  1  0  0  0
  6  9  1  0  0  0
  7 13  1  0  0  0
  8 14  1  0  0  0
 10 21  1  0  0  0
 11 22  1  0  0  0
 13 23  1  0  0  0
 14 24  1  0  0  0
 15 21  1  0  0  0
 16  9  1  0  0  0
 16 17  1  0  0  0
 17 18  1  0  0  0
 17 21  1  0  0  0
 19 20  1  0  0  0
 20 15  1  0  0  0
 30 12  1  0  0  0
 30 22  1  0  0  0
  1  2  2  0  0  0
  3  8  2  0  0  0
  4  7  2  0  0  0
  5 11  2  0  0  0
  6 12  2  0  0  0
  9 10  2  0  0  0
 13 25  2  0  0  0
 14 26  2  0  0  0
 15 27  2  0  0  0
 30 28  2  0  0  0
 30 29  2  0  0  0
M  CHG  2  23  -1  24  -1
M  END
> <rmsd>
0.522623062

$$$$
ZINC20209139


 30 32  0  0  0  0  0  0  0  0999 V2000
   -2.8985   -2.3179   -1.7919 C   0  0  0  0  0
   -2.7463   -0.9441   -1.5764 C   0  0  0  0  0
    1.8117    1.4633   -2.6537 C   0  0  0  0  0
   -0.1350    2.4534   -1.6207 C   0  0  0  0  0
    0.8559    0.4643   -0.6724 C   0  0  0  0  0
   -3.3717   -1.1918    0.7552 C   0  0  0  0  0
    0.8325    2.4563   -2.6255 C   0  0  0  0  0
    1.8233    0.4673   -1.6772 C   0  0  0  0  0
   -3.5300   -2.5504    0.5299 C   0  0  0  0  0
   -3.2995   -3.1131   -0.7285 C   0  0  0  0  0
   -0.1233    1.4574   -0.6442 C   0  0  0  0  0
   -2.9828   -0.3844   -0.3129 C   0  0  0  0  0
    0.8203    3.5072   -3.6560 C   0  0  0  0  0
    2.8568   -0.5807   -1.7072 C   0  0  0  0  0
   -3.2152   -5.4008   -1.7013 C   0  0  0  0  0
   -3.8576   -3.6019    1.5416 C   0  0  0  0  0
   -4.1405   -4.8237    0.6421 C   0  0  0  0  0
   -5.6514   -5.0476    0.5099 C   0  0  0  0  0
   -3.1650   -7.6929   -2.6228 C   0  0  0  0  0
   -3.5180   -6.8532   -1.4203 C   0  0  0  0  0
   -3.5249   -4.5102   -0.6820 N   0  0  0  0  0
   -1.1201    1.4551    0.3925 N   0  0  0  0  0
   -0.0948    4.4121   -3.6074 O   0  0  0  0  0
    2.8452   -1.4883   -0.7938 O   0  0  0  0  0
    1.7248    3.4870   -4.5725 O   0  0  0  0  0
    3.7382   -0.5549   -2.6456 O   0  0  0  0  0
   -2.7061   -5.1019   -2.7830 O   0  0  0  0  0
   -3.5957    1.7249    1.0659 O   0  0  0  0  0
   -2.9734    2.0093   -1.3489 O   0  0  0  0  0
   -2.7743    1.3329   -0.0732 S   0  0  0  0  0
  1 10  1  0  0  0
  2 12  1  0  0  0
  3  7  1  0  0  0
  4 11  1  0  0  0
  5  8  1  0  0  0
  6  9  1  0  0  0
  7 13  1  0  0  0
  8 14  1  0  0  0
 10 21  1  0  0  0
 11 22  1  0  0  0
 13 23  1  0  0  0
 14 24  1  0  0  0
 15 21  1  0  0  0
 16  9  1  0  0  0
 16 17  1  0  0  0
 17 18  1  0  0  0
 17 21  1  0  0  0
 19 20  1  0  0  0
 20 15  1  0  0  0
 30 12  1  0  0  0
 30 22  1  0  0  0
  1  2  2  0  0  0
  3  8  2  0  0  0
  4  7  2  0  0  0
  5 11  2  0  0  0
  6 12  2  0  0  0
  9 10  2  0  0  0
 13 25  2  0  0  0
 14 26  2  0  0  0
 15 27  2  0  0  0
 30 28  2  0  0  0
 30 29  2  0  0  0
M  CHG  2  23  -1  24  -1
M  END
> <rmsd>
0.526196361

$$$$
ZINC64843426


 30 32  0  0  0  0  0  0  0  0999 V2000
   -3.5727   -2.5589    0.5601 C   0  0  0  0  0
   -2.9216   -2.3226   -1.7545 C   0  0  0  0  0
   -3.3971   -1.1882    0.7494 C   0  0  0  0  0
   -2.7461   -0.9518   -1.5652 C   0  0  0  0  0
    0.8681    0.4571   -0.6597 C   0  0  0  0  0
   -0.0606    2.4525   -1.5612 C   0  0  0  0  0
   -3.3349   -3.1262   -0.6919 C   0  0  0  0  0
    1.8378    0.4946   -1.6556 C   0  0  0  0  0
   -0.1027    1.4510   -0.6047 C   0  0  0  0  0
   -2.9837   -0.3846   -0.3132 C   0  0  0  0  0
    1.7929    1.5388   -2.5653 C   0  0  0  0  0
   -3.5183   -4.5553   -0.8891 C   0  0  0  0  0
    2.8651   -0.5594   -1.7119 C   0  0  0  0  0
    2.4600    4.0185   -5.7022 C   0  0  0  0  0
    3.8218    4.2391   -5.0404 C   0  0  0  0  0
    2.3522    2.7408   -6.5373 C   0  0  0  0  0
    3.9121    3.7951   -3.5806 C   0  0  0  0  0
    1.7042    1.5541   -5.8243 C   0  0  0  0  0
    4.0380    2.2865   -3.3804 C   0  0  0  0  0
    2.6108    0.8395   -4.8248 C   0  0  0  0  0
   -3.2811   -5.4540    0.2897 C   0  0  0  0  0
    0.8655    2.5222   -2.5436 N   0  0  0  0  0
    2.7652    1.5831   -3.5700 N   0  0  0  0  0
   -1.1094    1.4396    0.4038 N   0  0  0  0  0
    2.6294   -1.6166   -2.4075 O   0  0  0  0  0
   -3.8491   -5.0852   -1.9519 O   0  0  0  0  0
    3.9637   -0.3877   -1.0631 O   0  0  0  0  0
   -3.6011    1.7326    1.0514 O   0  0  0  0  0
   -2.9448    2.0059   -1.3557 O   0  0  0  0  0
   -2.7643    1.3550   -0.0723 S   0  0  0  0  0
  1  7  1  0  0  0
  2  4  1  0  0  0
  3 10  1  0  0  0
  5  9  1  0  0  0
  6 22  1  0  0  0
  7 12  1  0  0  0
  8 11  1  0  0  0
  8 13  1  0  0  0
  9 24  1  0  0  0
 11 23  1  0  0  0
 13 25  1  0  0  0
 14 15  1  0  0  0
 14 16  1  0  0  0
 15 17  1  0  0  0
 16 18  1  0  0  0
 17 19  1  0  0  0
 18 20  1  0  0  0
 19 23  1  0  0  0
 20 23  1  0  0  0
 21 12  1  0  0  0
 30 10  1  0  0  0
 30 24  1  0  0  0
  1  3  2  0  0  0
  2  7  2  0  0  0
  4 10  2  0  0  0
  5  8  2  0  0  0
  6  9  2  0  0  0
 11 22  2  0  0  0
 12 26  2  0  0  0
 13 27  2  0  0  0
 30 28  2  0  0  0
 30 29  2  0  0  0
M  CHG  1  25  -1
M  END
> <rmsd>
0.50924921

$$$$
ZINC64843426


 30 32  0  0  0  0  0  0  0  0999 V2000
   -3.2821   -2.5835    0.4538 C   0  0  0  0  0
   -2.4386   -2.2567   -1.7864 C   0  0  0  0  0
   -3.2323   -1.2071    0.6735 C   0  0  0  0  0
   -2.3889   -0.8801   -1.5668 C   0  0  0  0  0
    1.0044    0.7852   -0.3097 C   0  0  0  0  0
    0.0110    2.7194   -1.2734 C   0  0  0  0  0
   -2.8852   -3.1085   -0.7761 C   0  0  0  0  0
    2.0567    0.9146   -1.2092 C   0  0  0  0  0
   -0.0419    1.7006   -0.3358 C   0  0  0  0  0
   -2.7856   -0.3553   -0.3368 C   0  0  0  0  0
    2.0155    1.9685   -2.1079 C   0  0  0  0  0
   -2.9374   -4.5436   -1.0049 C   0  0  0  0  0
    3.1639   -0.0564   -1.1797 C   0  0  0  0  0
    2.7767    4.5478   -5.1414 C   0  0  0  0  0
    4.0495    4.8602   -4.3518 C   0  0  0  0  0
    2.8470    3.2808   -5.9965 C   0  0  0  0  0
    4.0377    4.3984   -2.8948 C   0  0  0  0  0
    2.2299    2.0354   -5.3605 C   0  0  0  0  0
    4.2617    2.9005   -2.6998 C   0  0  0  0  0
    3.0924    1.3745   -4.2876 C   0  0  0  0  0
   -2.7418   -5.4425    0.1813 C   0  0  0  0  0
    1.0163    2.8774   -2.1634 N   0  0  0  0  0
    3.0708    2.1051   -3.0160 N   0  0  0  0  0
   -1.1342    1.5940    0.5730 N   0  0  0  0  0
    3.0771   -1.1159   -1.9056 O   0  0  0  0  0
   -3.1255   -5.0782   -2.0998 O   0  0  0  0  0
    4.1805    0.1873   -0.4284 O   0  0  0  0  0
   -3.6906    1.6836    0.9860 O   0  0  0  0  0
   -2.8363    2.0495   -1.3455 O   0  0  0  0  0
   -2.7259    1.3915   -0.0578 S   0  0  0  0  0
  1  7  1  0  0  0
  2  4  1  0  0  0
  3 10  1  0  0  0
  5  9  1  0  0  0
  6 22  1  0  0  0
  7 12  1  0  0  0
  8 11  1  0  0  0
  8 13  1  0  0  0
  9 24  1  0  0  0
 11 23  1  0  0  0
 13 25  1  0  0  0
 14 15  1  0  0  0
 14 16  1  0  0  0
 15 17  1  0  0  0
 16 18  1  0  0  0
 17 19  1  0  0  0
 18 20  1  0  0  0
 19 23  1  0  0  0
 20 23  1  0  0  0
 21 12  1  0  0  0
 30 10  1  0  0  0
 30 24  1  0  0  0
  1  3  2  0  0  0
  2  7  2  0  0  0
  4 10  2  0  0  0
  5  8  2  0  0  0
  6  9  2  0  0  0
 11 22  2  0  0  0
 12 26  2  0  0  0
 13 27  2  0  0  0
 30 28  2  0  0  0
 30 29  2  0  0  0
M  CHG  1  25  -1
M  END
> <rmsd>
0.687956989

$$$$
ZINC35397615


 30 32  0  0  0  0  0  0  0  0999 V2000
    1.0030    0.7871   -0.3135 C   0  0  0  0  0
   -2.7564   -2.6317    0.5041 C   0  0  0  0  0
   -2.9046   -0.8384   -1.6276 C   0  0  0  0  0
    0.0027    2.7128   -1.2870 C   0  0  0  0  0
    2.0525    0.9130   -1.2169 C   0  0  0  0  0
   -2.8765   -3.1084   -0.8012 C   0  0  0  0  0
   -2.7105   -1.2583    0.7437 C   0  0  0  0  0
   -2.9505   -2.2118   -1.8671 C   0  0  0  0  0
   -0.0453    1.7001   -0.3426 C   0  0  0  0  0
   -2.7846   -0.3616   -0.3222 C   0  0  0  0  0
    2.0064    1.9608   -2.1224 C   0  0  0  0  0
    3.1618   -0.0555   -1.1842 C   0  0  0  0  0
    2.7532    4.5218   -5.1749 C   0  0  0  0  0
    4.0276    4.8421   -4.3911 C   0  0  0  0  0
    2.8239    3.2494   -6.0219 C   0  0  0  0  0
    4.0210    4.3898   -2.9310 C   0  0  0  0  0
    2.2113    2.0068   -5.3759 C   0  0  0  0  0
    4.2488    2.8938   -2.7268 C   0  0  0  0  0
    3.0783    1.3549   -4.3012 C   0  0  0  0  0
   -2.9238   -4.5831   -1.0331 C   0  0  0  0  0
   -2.5807   -0.7803    2.1531 C   0  0  0  0  0
   -3.0797   -2.6992   -3.2730 C   0  0  0  0  0
    1.0051    2.8672   -2.1809 N   0  0  0  0  0
    3.0587    2.0937   -3.0344 N   0  0  0  0  0
   -1.1348    1.5972    0.5701 N   0  0  0  0  0
    3.0752   -1.1199   -1.9029 O   0  0  0  0  0
    4.1801    0.1954   -0.4375 O   0  0  0  0  0
   -3.6901    1.6840    0.9898 O   0  0  0  0  0
   -2.8433    2.0364   -1.3465 O   0  0  0  0  0
   -2.7278    1.3870   -0.0548 S   0  0  0  0  0
  1  9  1  0  0  0
  2  6  1  0  0  0
  3  8  1  0  0  0
  4 23  1  0  0  0
  5 11  1  0  0  0
  5 12  1  0  0  0
  7 10  1  0  0  0
  9 25  1  0  0  0
 11 24  1  0  0  0
 12 26  1  0  0  0
 13 14  1  0  0  0
 13 15  1  0  0  0
 14 16  1  0  0  0
 15 17  1  0  0  0
 16 18  1  0  0  0
 17 19  1  0  0  0
 18 24  1  0  0  0
 19 24  1  0  0  0
 20  6  1  0  0  0
 21  7  1  0  0  0
 22  8  1  0  0  0
 30 10  1  0  0  0
 30 25  1  0  0  0
  1  5  2  0  0  0
  2  7  2  0  0  0
  3 10  2  0  0  0
  4  9  2  0  0  0
  6  8  2  0  0  0
 11 23  2  0  0  0
 12 27  2  0  0  0
 30 28  2  0  0  0
 30 29  2  0  0  0
M  CHG  1  26  -1
M  END
> <rmsd>
0.692396581

$$$$
ZINC35397615


 30 32  0  0  0  0  0  0  0  0999 V2000
    0.8670    0.4566   -0.6606 C   0  0  0  0  0
   -3.0518   -2.6472    0.5641 C   0  0  0  0  0
   -3.2602   -0.8718   -1.5776 C   0  0  0  0  0
   -0.0686    2.4438   -1.5729 C   0  0  0  0  0
    1.8338    0.4895   -1.6594 C   0  0  0  0  0
   -3.3299   -3.1276   -0.7154 C   0  0  0  0  0
   -2.8779   -1.2790    0.7729 C   0  0  0  0  0
   -3.4341   -2.2400   -1.7863 C   0  0  0  0  0
   -0.1059    1.4486   -0.6096 C   0  0  0  0  0
   -2.9821   -0.3913   -0.2979 C   0  0  0  0  0
    1.7842    1.5274   -2.5759 C   0  0  0  0  0
    2.8634   -0.5627   -1.7114 C   0  0  0  0  0
    2.4373    3.9875   -5.7312 C   0  0  0  0  0
    3.8004    4.2155   -5.0746 C   0  0  0  0  0
    2.3300    2.7040   -6.5574 C   0  0  0  0  0
    3.8956    3.7816   -3.6121 C   0  0  0  0  0
    1.6866    1.5207   -5.8347 C   0  0  0  0  0
    4.0254    2.2746   -3.4022 C   0  0  0  0  0
    2.5975    0.8148   -4.8329 C   0  0  0  0  0
   -3.5123   -4.5965   -0.9147 C   0  0  0  0  0
   -2.5803   -0.7969    2.1553 C   0  0  0  0  0
   -3.7314   -2.7315   -3.1651 C   0  0  0  0  0
    0.8546    2.5090   -2.5583 N   0  0  0  0  0
    2.7536    1.5671   -3.5835 N   0  0  0  0  0
   -1.1098    1.4418    0.4017 N   0  0  0  0  0
    2.6281   -1.6250   -2.3992 O   0  0  0  0  0
    3.9634   -0.3842   -1.0668 O   0  0  0  0  0
   -3.6004    1.7336    1.0541 O   0  0  0  0  0
   -2.9513    1.9922   -1.3565 O   0  0  0  0  0
   -2.7658    1.3504   -0.0693 S   0  0  0  0  0
  1  9  1  0  0  0
  2  6  1  0  0  0
  3  8  1  0  0  0
  4 23  1  0  0  0
  5 11  1  0  0  0
  5 12  1  0  0  0
  7 10  1  0  0  0
  9 25  1  0  0  0
 11 24  1  0  0  0
 12 26  1  0  0  0
 13 14  1  0  0  0
 13 15  1  0  0  0
 14 16  1  0  0  0
 15 17  1  0  0  0
 16 18  1  0  0  0
 17 19  1  0  0  0
 18 24  1  0  0  0
 19 24  1  0  0  0
 20  6  1  0  0  0
 21  7  1  0  0  0
 22  8  1  0  0  0
 30 10  1  0  0  0
 30 25  1  0  0  0
  1  5  2  0  0  0
  2  7  2  0  0  0
  3 10  2  0  0  0
  4  9  2  0  0  0
  6  8  2  0  0  0
 11 23  2  0  0  0
 12 27  2  0  0  0
 30 28  2  0  0  0
 30 29  2  0  0  0
M  CHG  1  26  -1
M  END
> <rmsd>
0.512660682

$$$$
ZINC35397336


 30 32  0  0  0  0  0  0  0  0999 V2000
   -3.5697   -2.5605    0.5588 C   0  0  0  0  0
   -2.9160   -2.3220   -1.7548 C   0  0  0  0  0
   -3.3970   -1.1895    0.7490 C   0  0  0  0  0
   -2.7434   -0.9510   -1.5646 C   0  0  0  0  0
    0.8681    0.4568   -0.6598 C   0  0  0  0  0
   -0.0607    2.4520   -1.5616 C   0  0  0  0  0
    1.8376    0.4941   -1.6558 C   0  0  0  0  0
   -3.3291   -3.1268   -0.6930 C   0  0  0  0  0
   -0.1027    1.4507   -0.6048 C   0  0  0  0  0
   -2.9838   -0.3847   -0.3126 C   0  0  0  0  0
    1.7926    1.5381   -2.5656 C   0  0  0  0  0
    2.8649   -0.5600   -1.7119 C   0  0  0  0  0
    3.4914    1.0217   -5.8565 C   0  0  0  0  0
    5.1510    1.7917   -4.1503 C   0  0  0  0  0
    2.3522    1.5379   -4.9777 C   0  0  0  0  0
    4.0077    2.3106   -3.2797 C   0  0  0  0  0
    4.7806    1.8194   -5.6368 C   0  0  0  0  0
    5.9172    1.2630   -6.4909 C   0  0  0  0  0
   -1.7534   -5.2822    0.8169 C   0  0  0  0  0
   -2.5182   -6.9179   -0.9163 C   0  0  0  0  0
   -3.5116   -4.5928   -0.8961 C   0  0  0  0  0
   -2.2443   -5.4403   -0.6244 C   0  0  0  0  0
    0.8653    2.5216   -2.5441 N   0  0  0  0  0
    2.7656    1.5821   -3.5713 N   0  0  0  0  0
   -1.1094    1.4396    0.4038 N   0  0  0  0  0
    2.6290   -1.6173   -2.4074 O   0  0  0  0  0
    3.9636   -0.3883   -1.0634 O   0  0  0  0  0
   -3.6008    1.7328    1.0516 O   0  0  0  0  0
   -2.9449    2.0056   -1.3557 O   0  0  0  0  0
   -2.7642    1.3549   -0.0721 S   0  0  0  0  0
  1  8  1  0  0  0
  2  4  1  0  0  0
  3 10  1  0  0  0
  5  9  1  0  0  0
  6 23  1  0  0  0
  7 11  1  0  0  0
  7 12  1  0  0  0
  9 25  1  0  0  0
 11 24  1  0  0  0
 12 26  1  0  0  0
 13 15  1  0  0  0
 13 17  1  0  0  0
 14 16  1  0  0  0
 14 17  1  0  0  0
 15 24  1  0  0  0
 16 24  1  0  0  0
 17 18  1  0  0  0
 19 22  1  0  0  0
 20 22  1  0  0  0
 21  8  1  0  0  0
 21 22  1  0  0  0
 30 10  1  0  0  0
 30 25  1  0  0  0
  1  3  2  0  0  0
  2  8  2  0  0  0
  4 10  2  0  0  0
  5  7  2  0  0  0
  6  9  2  0  0  0
 11 23  2  0  0  0
 12 27  2  0  0  0
 30 28  2  0  0  0
 30 29  2  0  0  0
M  CHG  1  26  -1
M  END
> <rmsd>
0.510074675

$$$$
ZINC35397336


 30 32  0  0  0  0  0  0  0  0999 V2000
   -3.2789   -2.5850    0.4527 C   0  0  0  0  0
   -2.4330   -2.2556   -1.7863 C   0  0  0  0  0
   -3.2320   -1.2084    0.6730 C   0  0  0  0  0
   -2.3863   -0.8790   -1.5660 C   0  0  0  0  0
    1.0045    0.7847   -0.3098 C   0  0  0  0  0
    0.0112    2.7188   -1.2738 C   0  0  0  0  0
    2.0567    0.9140   -1.2095 C   0  0  0  0  0
   -2.8793   -3.1086   -0.7768 C   0  0  0  0  0
   -0.0417    1.7002   -0.3360 C   0  0  0  0  0
   -2.7856   -0.3554   -0.3363 C   0  0  0  0  0
    2.0155    1.9676   -2.1083 C   0  0  0  0  0
    3.1638   -0.0572   -1.1797 C   0  0  0  0  0
    4.0485    1.6420   -5.2297 C   0  0  0  0  0
    5.4769    2.5061   -3.3665 C   0  0  0  0  0
    2.7956    2.0536   -4.4568 C   0  0  0  0  0
    4.2205    2.9202   -2.6021 C   0  0  0  0  0
    5.2455    2.5320   -4.8810 C   0  0  0  0  0
    6.4966    2.0797   -5.6299 C   0  0  0  0  0
   -1.2880   -5.1638    0.8518 C   0  0  0  0  0
   -1.7582   -6.8219   -0.9631 C   0  0  0  0  0
   -2.9273   -4.5804   -1.0119 C   0  0  0  0  0
   -1.6286   -5.3331   -0.6310 C   0  0  0  0  0
    1.0164    2.8767   -2.1638 N   0  0  0  0  0
    3.0715    2.1041   -3.0173 N   0  0  0  0  0
   -1.1340    1.5940    0.5731 N   0  0  0  0  0
    3.0768   -1.1168   -1.9056 O   0  0  0  0  0
    4.1806    0.1865   -0.4287 O   0  0  0  0  0
   -3.6902    1.6838    0.9862 O   0  0  0  0  0
   -2.8361    2.0492   -1.3455 O   0  0  0  0  0
   -2.7257    1.3913   -0.0576 S   0  0  0  0  0
  1  8  1  0  0  0
  2  4  1  0  0  0
  3 10  1  0  0  0
  5  9  1  0  0  0
  6 23  1  0  0  0
  7 11  1  0  0  0
  7 12  1  0  0  0
  9 25  1  0  0  0
 11 24  1  0  0  0
 12 26  1  0  0  0
 13 15  1  0  0  0
 13 17  1  0  0  0
 14 16  1  0  0  0
 14 17  1  0  0  0
 15 24  1  0  0  0
 16 24  1  0  0  0
 17 18  1  0  0  0
 19 22  1  0  0  0
 20 22  1  0  0  0
 21  8  1  0  0  0
 21 22  1  0  0  0
 30 10  1  0  0  0
 30 25  1  0  0  0
  1  3  2  0  0  0
  2  8  2  0  0  0
  4 10  2  0  0  0
  5  7  2  0  0  0
  6  9  2  0  0  0
 11 23  2  0  0  0
 12 27  2  0  0  0
 30 28  2  0  0  0
 30 29  2  0  0  0
M  CHG  1  26  -1
M  END
> <rmsd>
0.689314723

$$$$
ZINC35397442


 30 32  0  0  0  0  0  0  0  0999 V2000
   -2.4344   -2.2564   -1.7858 C   0  0  0  0  0
   -3.2805   -2.5841    0.4534 C   0  0  0  0  0
   -2.3866   -0.8798   -1.5663 C   0  0  0  0  0
   -3.2326   -1.2074    0.6729 C   0  0  0  0  0
    1.0045    0.7848   -0.3097 C   0  0  0  0  0
    0.0114    2.7191   -1.2733 C   0  0  0  0  0
    2.0568    0.9142   -1.2092 C   0  0  0  0  0
   -2.8813   -3.1086   -0.7759 C   0  0  0  0  0
   -0.0416    1.7003   -0.3357 C   0  0  0  0  0
   -2.7857   -0.3553   -0.3371 C   0  0  0  0  0
    2.0157    1.9681   -2.1078 C   0  0  0  0  0
    3.1639   -0.0570   -1.1796 C   0  0  0  0  0
    4.2937    4.1280   -4.9076 C   0  0  0  0  0
    3.6861    3.1940   -5.9531 C   0  0  0  0  0
    5.0885    3.3922   -3.8285 C   0  0  0  0  0
    2.6028    2.2545   -5.4270 C   0  0  0  0  0
    4.2398    2.9116   -2.6499 C   0  0  0  0  0
    3.0690    1.3628   -4.2782 C   0  0  0  0  0
   -1.5217   -5.1512   -1.3460 C   0  0  0  0  0
   -3.8777   -4.9292   -2.2039 C   0  0  0  0  0
   -3.4536   -5.4343    0.1933 C   0  0  0  0  0
   -2.9346   -4.5802   -1.0109 C   0  0  0  0  0
    1.0166    2.8772   -2.1632 N   0  0  0  0  0
    3.0720    2.1048   -3.0166 N   0  0  0  0  0
   -1.1341    1.5939    0.5731 N   0  0  0  0  0
    3.0769   -1.1164   -1.9057 O   0  0  0  0  0
    4.1805    0.1866   -0.4284 O   0  0  0  0  0
   -3.6904    1.6837    0.9860 O   0  0  0  0  0
   -2.8360    2.0497   -1.3454 O   0  0  0  0  0
   -2.7257    1.3915   -0.0578 S   0  0  0  0  0
  1  8  1  0  0  0
  2  4  1  0  0  0
  3 10  1  0  0  0
  5  9  1  0  0  0
  6 23  1  0  0  0
  7 11  1  0  0  0
  7 12  1  0  0  0
  9 25  1  0  0  0
 11 24  1  0  0  0
 12 26  1  0  0  0
 13 14  1  0  0  0
 13 15  1  0  0  0
 14 16  1  0  0  0
 15 17  1  0  0  0
 16 18  1  0  0  0
 17 24  1  0  0  0
 18 24  1  0  0  0
 19 22  1  0  0  0
 20 22  1  0  0  0
 21 22  1  0  0  0
 22  8  1  0  0  0
 30 10  1  0  0  0
 30 25  1  0  0  0
  1  3  2  0  0  0
  2  8  2  0  0  0
  4 10  2  0  0  0
  5  7  2  0  0  0
  6  9  2  0  0  0
 11 23  2  0  0  0
 12 27  2  0  0  0
 30 28  2  0  0  0
 30 29  2  0  0  0
M  CHG  1  26  -1
M  END
> <rmsd>
0.688737154

$$$$
ZINC35397442


 30 32  0  0  0  0  0  0  0  0999 V2000
   -2.9170   -2.3227   -1.7542 C   0  0  0  0  0
   -3.5710   -2.5595    0.5596 C   0  0  0  0  0
   -2.7435   -0.9517   -1.5649 C   0  0  0  0  0
   -3.3974   -1.1885    0.7489 C   0  0  0  0  0
    0.8683    0.4570   -0.6594 C   0  0  0  0  0
   -0.0602    2.4524   -1.5609 C   0  0  0  0  0
    1.8380    0.4945   -1.6552 C   0  0  0  0  0
   -3.3307   -3.1266   -0.6920 C   0  0  0  0  0
   -0.1025    1.4509   -0.6044 C   0  0  0  0  0
   -2.9838   -0.3846   -0.3134 C   0  0  0  0  0
    1.7932    1.5387   -2.5648 C   0  0  0  0  0
    2.8653   -0.5596   -1.7113 C   0  0  0  0  0
    3.9560    3.4846   -5.6027 C   0  0  0  0  0
    3.1828    2.5897   -6.5702 C   0  0  0  0  0
    4.7902    2.7007   -4.5893 C   0  0  0  0  0
    2.0852    1.7430   -5.9288 C   0  0  0  0  0
    4.0220    2.3003   -3.3284 C   0  0  0  0  0
    2.5880    0.8301   -4.8126 C   0  0  0  0  0
   -2.1912   -5.2749   -1.3495 C   0  0  0  0  0
   -4.5936   -4.8793   -1.9882 C   0  0  0  0  0
   -3.9854   -5.3902    0.3678 C   0  0  0  0  0
   -3.5183   -4.5921   -0.8946 C   0  0  0  0  0
    0.8659    2.5222   -2.5432 N   0  0  0  0  0
    2.7665    1.5830   -3.5703 N   0  0  0  0  0
   -1.1094    1.4396    0.4040 N   0  0  0  0  0
    2.6295   -1.6167   -2.4071 O   0  0  0  0  0
    3.9639   -0.3880   -1.0625 O   0  0  0  0  0
   -3.6010    1.7327    1.0513 O   0  0  0  0  0
   -2.9446    2.0061   -1.3557 O   0  0  0  0  0
   -2.7642    1.3551   -0.0723 S   0  0  0  0  0
  1  8  1  0  0  0
  2  4  1  0  0  0
  3 10  1  0  0  0
  5  9  1  0  0  0
  6 23  1  0  0  0
  7 11  1  0  0  0
  7 12  1  0  0  0
  9 25  1  0  0  0
 11 24  1  0  0  0
 12 26  1  0  0  0
 13 14  1  0  0  0
 13 15  1  0  0  0
 14 16  1  0  0  0
 15 17  1  0  0  0
 16 18  1  0  0  0
 17 24  1  0  0  0
 18 24  1  0  0  0
 19 22  1  0  0  0
 20 22  1  0  0  0
 21 22  1  0  0  0
 22  8  1  0  0  0
 30 10  1  0  0  0
 30 25  1  0  0  0
  1  3  2  0  0  0
  2  8  2  0  0  0
  4 10  2  0  0  0
  5  7  2  0  0  0
  6  9  2  0  0  0
 11 23  2  0  0  0
 12 27  2  0  0  0
 30 28  2  0  0  0
 30 29  2  0  0  0
M  CHG  1  26  -1
M  END
> <rmsd>
0.509772003

$$$$
ZINC35397641


 30 32  0  0  0  0  0  0  0  0999 V2000
   -3.2699   -2.5864    0.4413 C   0  0  0  0  0
   -2.4305   -2.2482   -1.7988 C   0  0  0  0  0
   -3.2260   -1.2104    0.6656 C   0  0  0  0  0
   -2.3867   -0.8721   -1.5746 C   0  0  0  0  0
    1.0041    0.7938   -0.3281 C   0  0  0  0  0
   -0.0194    2.6930   -1.3290 C   0  0  0  0  0
    2.0449    0.9106   -1.2427 C   0  0  0  0  0
   -2.8721   -3.1054   -0.7909 C   0  0  0  0  0
   -0.0514    1.6979   -0.3653 C   0  0  0  0  0
   -2.7844   -0.3532   -0.3425 C   0  0  0  0  0
    1.9831    1.9408   -2.1672 C   0  0  0  0  0
    3.1621   -0.0486   -1.2012 C   0  0  0  0  0
   -2.5624   -7.0702   -2.6288 C   0  0  0  0  0
   -1.5836   -6.7014   -1.5181 C   0  0  0  0  0
   -3.9502   -6.4909   -2.3711 C   0  0  0  0  0
   -1.5213   -5.1907   -1.2999 C   0  0  0  0  0
   -3.8994   -4.9791   -2.1570 C   0  0  0  0  0
   -2.9174   -4.5987   -1.0337 C   0  0  0  0  0
    2.2907    2.2242   -5.4009 C   0  0  0  0  0
    3.9036    4.3293   -3.0573 C   0  0  0  0  0
    2.9703    1.3826   -4.3749 C   0  0  0  0  0
    4.1887    2.8895   -2.7958 C   0  0  0  0  0
    0.9743    2.8383   -2.2341 N   0  0  0  0  0
   -1.1423    1.6031    0.5670 N   0  0  0  0  0
    3.0404    2.0662   -3.1028 N   0  0  0  0  0
    3.0776   -1.1270   -1.8992 O   0  0  0  0  0
    4.1846    0.2239   -0.4683 O   0  0  0  0  0
   -3.6853    1.6787    0.9939 O   0  0  0  0  0
   -2.8515    2.0544   -1.3434 O   0  0  0  0  0
   -2.7290    1.3693   -0.0625 S   0  0  0  0  0
  1  8  1  0  0  0
  2  4  1  0  0  0
  3 10  1  0  0  0
  5  9  1  0  0  0
  6 23  1  0  0  0
  7 11  1  0  0  0
  7 12  1  0  0  0
  9 24  1  0  0  0
 11 25  1  0  0  0
 12 26  1  0  0  0
 13 14  1  0  0  0
 13 15  1  0  0  0
 14 16  1  0  0  0
 15 17  1  0  0  0
 16 18  1  0  0  0
 17 18  1  0  0  0
 18  8  1  0  0  0
 19 21  1  0  0  0
 20 22  1  0  0  0
 21 25  1  0  0  0
 22 25  1  0  0  0
 30 10  1  0  0  0
 30 24  1  0  0  0
  1  3  2  0  0  0
  2  8  2  0  0  0
  4 10  2  0  0  0
  5  7  2  0  0  0
  6  9  2  0  0  0
 11 23  2  0  0  0
 12 27  2  0  0  0
 30 28  2  0  0  0
 30 29  2  0  0  0
M  CHG  1  26  -1
M  END
> <rmsd>
0.695418298

$$$$
ZINC35397641


 30 32  0  0  0  0  0  0  0  0999 V2000
   -3.5697   -2.5613    0.5523 C   0  0  0  0  0
   -2.9148   -2.3199   -1.7607 C   0  0  0  0  0
   -3.3973   -1.1905    0.7442 C   0  0  0  0  0
   -2.7424   -0.9491   -1.5689 C   0  0  0  0  0
    0.8687    0.4551   -0.6668 C   0  0  0  0  0
   -0.0893    2.4175   -1.6090 C   0  0  0  0  0
    1.8275    0.4765   -1.6736 C   0  0  0  0  0
   -3.3284   -3.1261   -0.7001 C   0  0  0  0  0
   -0.1113    1.4405   -0.6267 C   0  0  0  0  0
   -2.9837   -0.3844   -0.3165 C   0  0  0  0  0
    1.7626    1.4964   -2.6093 C   0  0  0  0  0
    2.8647   -0.5686   -1.7140 C   0  0  0  0  0
   -3.5013   -7.1260   -2.4790 C   0  0  0  0  0
   -2.3990   -6.8228   -1.4687 C   0  0  0  0  0
   -4.8097   -6.4341   -2.1088 C   0  0  0  0  0
   -2.1982   -5.3194   -1.2872 C   0  0  0  0  0
   -4.6207   -4.9286   -1.9304 C   0  0  0  0  0
   -3.5132   -4.6139   -0.9080 C   0  0  0  0  0
    1.7944    1.7131   -5.8625 C   0  0  0  0  0
    3.7756    3.7117   -3.7164 C   0  0  0  0  0
    2.4967    0.8329   -4.8854 C   0  0  0  0  0
    3.9692    2.2571   -3.4530 C   0  0  0  0  0
    0.8257    2.4711   -2.6028 N   0  0  0  0  0
   -1.1164    1.4454    0.4019 N   0  0  0  0  0
    2.7365    1.5247   -3.6387 N   0  0  0  0  0
    2.6322   -1.6456   -2.3798 O   0  0  0  0  0
    3.9683   -0.3697   -1.0818 O   0  0  0  0  0
   -3.5958    1.7301    1.0549 O   0  0  0  0  0
   -2.9524    2.0079   -1.3551 O   0  0  0  0  0
   -2.7675    1.3315   -0.0771 S   0  0  0  0  0
  1  8  1  0  0  0
  2  4  1  0  0  0
  3 10  1  0  0  0
  5  9  1  0  0  0
  6 23  1  0  0  0
  7 11  1  0  0  0
  7 12  1  0  0  0
  9 24  1  0  0  0
 11 25  1  0  0  0
 12 26  1  0  0  0
 13 14  1  0  0  0
 13 15  1  0  0  0
 14 16  1  0  0  0
 15 17  1  0  0  0
 16 18  1  0  0  0
 17 18  1  0  0  0
 18  8  1  0  0  0
 19 21  1  0  0  0
 20 22  1  0  0  0
 21 25  1  0  0  0
 22 25  1  0  0  0
 30 10  1  0  0  0
 30 24  1  0  0  0
  1  3  2  0  0  0
  2  8  2  0  0  0
  4 10  2  0  0  0
  5  7  2  0  0  0
  6  9  2  0  0  0
 11 23  2  0  0  0
 12 27  2  0  0  0
 30 28  2  0  0  0
 30 29  2  0  0  0
M  CHG  1  26  -1
M  END
> <rmsd>
0.513107002

$$$$
ZINC35397583


 30 32  0  0  0  0  0  0  0  0999 V2000
    0.8680    0.4570   -0.6601 C   0  0  0  0  0
   -2.9489   -2.6374    0.5567 C   0  0  0  0  0
   -3.5351   -2.2439   -1.7538 C   0  0  0  0  0
   -0.0603    2.4527   -1.5614 C   0  0  0  0  0
    1.8376    0.4944   -1.6560 C   0  0  0  0  0
   -3.3280   -3.1263   -0.6935 C   0  0  0  0  0
   -2.7771   -1.2662    0.7467 C   0  0  0  0  0
   -3.3632   -0.8727   -1.5639 C   0  0  0  0  0
   -0.1027    1.4511   -0.6049 C   0  0  0  0  0
   -2.9841   -0.3839   -0.3137 C   0  0  0  0  0
    1.7930    1.5387   -2.5656 C   0  0  0  0  0
    2.8647   -0.5599   -1.7125 C   0  0  0  0  0
    2.4607    4.0187   -5.7022 C   0  0  0  0  0
    3.8225    4.2389   -5.0403 C   0  0  0  0  0
    2.3525    2.7411   -6.5374 C   0  0  0  0  0
    3.9127    3.7947   -3.5805 C   0  0  0  0  0
    1.7042    1.5545   -5.8246 C   0  0  0  0  0
    4.0383    2.2860   -3.3806 C   0  0  0  0  0
    2.6107    0.8395   -4.8251 C   0  0  0  0  0
   -3.5108   -4.5925   -0.8969 C   0  0  0  0  0
   -2.3695   -0.7799    2.0995 C   0  0  0  0  0
   -3.5934    0.0421   -2.7229 C   0  0  0  0  0
    0.8658    2.5224   -2.5438 N   0  0  0  0  0
    2.7653    1.5829   -3.5703 N   0  0  0  0  0
   -1.1094    1.4398    0.4035 N   0  0  0  0  0
    2.6287   -1.6169   -2.4082 O   0  0  0  0  0
    3.9634   -0.3885   -1.0637 O   0  0  0  0  0
   -3.6009    1.7333    1.0512 O   0  0  0  0  0
   -2.9447    2.0068   -1.3559 O   0  0  0  0  0
   -2.7643    1.3557   -0.0726 S   0  0  0  0  0
  1  9  1  0  0  0
  2  6  1  0  0  0
  3  8  1  0  0  0
  4 23  1  0  0  0
  5 11  1  0  0  0
  5 12  1  0  0  0
  7 10  1  0  0  0
  9 25  1  0  0  0
 11 24  1  0  0  0
 12 26  1  0  0  0
 13 14  1  0  0  0
 13 15  1  0  0  0
 14 16  1  0  0  0
 15 17  1  0  0  0
 16 18  1  0  0  0
 17 19  1  0  0  0
 18 24  1  0  0  0
 19 24  1  0  0  0
 20  6  1  0  0  0
 21  7  1  0  0  0
 22  8  1  0  0  0
 30 10  1  0  0  0
 30 25  1  0  0  0
  1  5  2  0  0  0
  2  7  2  0  0  0
  3  6  2  0  0  0
  4  9  2  0  0  0
  8 10  2  0  0  0
 11 23  2  0  0  0
 12 27  2  0  0  0
 30 28  2  0  0  0
 30 29  2  0  0  0
M  CHG  1  26  -1
M  END
> <rmsd>
0.510752678

$$$$
ZINC35397583


 30 32  0  0  0  0  0  0  0  0999 V2000
    1.0043    0.7850   -0.3100 C   0  0  0  0  0
   -2.6566   -2.6141    0.5083 C   0  0  0  0  0
   -3.0537   -2.2251   -1.8429 C   0  0  0  0  0
    0.0114    2.7196   -1.2733 C   0  0  0  0  0
    2.0567    0.9144   -1.2095 C   0  0  0  0  0
   -2.8782   -3.1079   -0.7773 C   0  0  0  0  0
   -2.6106   -1.2374    0.7282 C   0  0  0  0  0
   -3.0076   -0.8484   -1.6230 C   0  0  0  0  0
   -0.0418    1.7006   -0.3359 C   0  0  0  0  0
   -2.7860   -0.3545   -0.3374 C   0  0  0  0  0
    2.0158    1.9684   -2.1080 C   0  0  0  0  0
    3.1636   -0.0570   -1.1801 C   0  0  0  0  0
    2.7776    4.5481   -5.1409 C   0  0  0  0  0
    4.0505    4.8600   -4.3512 C   0  0  0  0  0
    2.8477    3.2812   -5.9962 C   0  0  0  0  0
    4.0386    4.3979   -2.8943 C   0  0  0  0  0
    2.2303    2.0358   -5.3605 C   0  0  0  0  0
    4.2622    2.9000   -2.6996 C   0  0  0  0  0
    3.0925    1.3746   -4.2877 C   0  0  0  0  0
   -2.9264   -4.5800   -1.0127 C   0  0  0  0  0
   -2.3701   -0.7456    2.1187 C   0  0  0  0  0
   -3.1994    0.0668   -2.7886 C   0  0  0  0  0
    1.0168    2.8776   -2.1632 N   0  0  0  0  0
    3.0711    2.1049   -3.0159 N   0  0  0  0  0
   -1.1341    1.5942    0.5729 N   0  0  0  0  0
    3.0766   -1.1163   -1.9062 O   0  0  0  0  0
    4.1803    0.1864   -0.4287 O   0  0  0  0  0
   -3.6905    1.6843    0.9857 O   0  0  0  0  0
   -2.8360    2.0504   -1.3456 O   0  0  0  0  0
   -2.7258    1.3921   -0.0580 S   0  0  0  0  0
  1  9  1  0  0  0
  2  6  1  0  0  0
  3  8  1  0  0  0
  4 23  1  0  0  0
  5 11  1  0  0  0
  5 12  1  0  0  0
  7 10  1  0  0  0
  9 25  1  0  0  0
 11 24  1  0  0  0
 12 26  1  0  0  0
 13 14  1  0  0  0
 13 15  1  0  0  0
 14 16  1  0  0  0
 15 17  1  0  0  0
 16 18  1  0  0  0
 17 19  1  0  0  0
 18 24  1  0  0  0
 19 24  1  0  0  0
 20  6  1  0  0  0
 21  7  1  0  0  0
 22  8  1  0  0  0
 30 10  1  0  0  0
 30 25  1  0  0  0
  1  5  2  0  0  0
  2  7  2  0  0  0
  3  6  2  0  0  0
  4  9  2  0  0  0
  8 10  2  0  0  0
 11 23  2  0  0  0
 12 27  2  0  0  0
 30 28  2  0  0  0
 30 29  2  0  0  0
M  CHG  1  26  -1
M  END
> <rmsd>
0.689719975

$$$$
ZINC35397603


 30 32  0  0  0  0  0  0  0  0999 V2000
   -3.2797   -2.5846    0.4524 C   0  0  0  0  0
   -2.4338   -2.2550   -1.7865 C   0  0  0  0  0
   -3.2327   -1.2081    0.6729 C   0  0  0  0  0
   -2.3869   -0.8785   -1.5662 C   0  0  0  0  0
    1.0039    0.7850   -0.3097 C   0  0  0  0  0
    0.0107    2.7192   -1.2734 C   0  0  0  0  0
    2.0561    0.9142   -1.2093 C   0  0  0  0  0
   -2.8802   -3.1081   -0.7773 C   0  0  0  0  0
   -0.0423    1.7005   -0.3358 C   0  0  0  0  0
   -2.7863   -0.3550   -0.3365 C   0  0  0  0  0
    2.0150    1.9680   -2.1081 C   0  0  0  0  0
    3.1632   -0.0570   -1.1798 C   0  0  0  0  0
    2.7763    4.5471   -5.1417 C   0  0  0  0  0
    4.0492    4.8593   -4.3523 C   0  0  0  0  0
    2.8464    3.2800   -5.9967 C   0  0  0  0  0
    4.0375    4.3976   -2.8952 C   0  0  0  0  0
    2.2291    2.0347   -5.3606 C   0  0  0  0  0
    4.2613    2.8997   -2.7001 C   0  0  0  0  0
    3.0916    1.3738   -4.2877 C   0  0  0  0  0
   -1.5357   -5.1778   -1.2895 C   0  0  0  0  0
   -3.8965   -4.9638   -2.1474 C   0  0  0  0  0
   -2.9282   -4.5799   -1.0125 C   0  0  0  0  0
    1.0159    2.8771   -2.1634 N   0  0  0  0  0
    3.0702    2.1044   -3.0162 N   0  0  0  0  0
   -1.1345    1.5942    0.5732 N   0  0  0  0  0
    3.0762   -1.1165   -1.9056 O   0  0  0  0  0
    4.1799    0.1867   -0.4286 O   0  0  0  0  0
   -3.6909    1.6841    0.9863 O   0  0  0  0  0
   -2.8367    2.0498   -1.3452 O   0  0  0  0  0
   -2.7263    1.3918   -0.0575 S   0  0  0  0  0
  1  8  1  0  0  0
  2  4  1  0  0  0
  3 10  1  0  0  0
  5  9  1  0  0  0
  6 23  1  0  0  0
  7 11  1  0  0  0
  7 12  1  0  0  0
  9 25  1  0  0  0
 11 24  1  0  0  0
 12 26  1  0  0  0
 13 14  1  0  0  0
 13 15  1  0  0  0
 14 16  1  0  0  0
 15 17  1  0  0  0
 16 18  1  0  0  0
 17 19  1  0  0  0
 18 24  1  0  0  0
 19 24  1  0  0  0
 20 22  1  0  0  0
 21 22  1  0  0  0
 22  8  1  0  0  0
 30 10  1  0  0  0
 30 25  1  0  0  0
  1  3  2  0  0  0
  2  8  2  0  0  0
  4 10  2  0  0  0
  5  7  2  0  0  0
  6  9  2  0  0  0
 11 23  2  0  0  0
 12 27  2  0  0  0
 30 28  2  0  0  0
 30 29  2  0  0  0
M  CHG  1  26  -1
M  END
> <rmsd>
0.689315796

$$$$
ZINC35397603


 30 32  0  0  0  0  0  0  0  0999 V2000
   -3.5705   -2.5601    0.5585 C   0  0  0  0  0
   -2.9168   -2.3213   -1.7550 C   0  0  0  0  0
   -3.3977   -1.1892    0.7490 C   0  0  0  0  0
   -2.7439   -0.9504   -1.5647 C   0  0  0  0  0
    0.8676    0.4570   -0.6597 C   0  0  0  0  0
   -0.0610    2.4524   -1.5613 C   0  0  0  0  0
    1.8371    0.4942   -1.6556 C   0  0  0  0  0
   -3.3300   -3.1263   -0.6934 C   0  0  0  0  0
   -0.1032    1.4509   -0.6046 C   0  0  0  0  0
   -2.9844   -0.3843   -0.3127 C   0  0  0  0  0
    1.7923    1.5383   -2.5654 C   0  0  0  0  0
    2.8643   -0.5600   -1.7119 C   0  0  0  0  0
    2.4595    4.0176   -5.7026 C   0  0  0  0  0
    3.8213    4.2381   -5.0410 C   0  0  0  0  0
    2.3514    2.7399   -6.5376 C   0  0  0  0  0
    3.9117    3.7943   -3.5811 C   0  0  0  0  0
    1.7033    1.5534   -5.8245 C   0  0  0  0  0
    4.0374    2.2857   -3.3808 C   0  0  0  0  0
    2.6099    0.8387   -4.8249 C   0  0  0  0  0
   -2.2023   -5.2998   -1.2914 C   0  0  0  0  0
   -4.6102   -4.9116   -1.9293 C   0  0  0  0  0
   -3.5126   -4.5922   -0.8966 C   0  0  0  0  0
    0.8650    2.5219   -2.5438 N   0  0  0  0  0
    2.7645    1.5823   -3.5702 N   0  0  0  0  0
   -1.1098    1.4398    0.4039 N   0  0  0  0  0
    2.6284   -1.6172   -2.4074 O   0  0  0  0  0
    3.9630   -0.3883   -1.0633 O   0  0  0  0  0
   -3.6013    1.7332    1.0518 O   0  0  0  0  0
   -2.9453    2.0062   -1.3554 O   0  0  0  0  0
   -2.7647    1.3554   -0.0720 S   0  0  0  0  0
  1  8  1  0  0  0
  2  4  1  0  0  0
  3 10  1  0  0  0
  5  9  1  0  0  0
  6 23  1  0  0  0
  7 11  1  0  0  0
  7 12  1  0  0  0
  9 25  1  0  0  0
 11 24  1  0  0  0
 12 26  1  0  0  0
 13 14  1  0  0  0
 13 15  1  0  0  0
 14 16  1  0  0  0
 15 17  1  0  0  0
 16 18  1  0  0  0
 17 19  1  0  0  0
 18 24  1  0  0  0
 19 24  1  0  0  0
 20 22  1  0  0  0
 21 22  1  0  0  0
 22  8  1  0  0  0
 30 10  1  0  0  0
 30 25  1  0  0  0
  1  3  2  0  0  0
  2  8  2  0  0  0
  4 10  2  0  0  0
  5  7  2  0  0  0
  6  9  2  0  0  0
 11 23  2  0  0  0
 12 27  2  0  0  0
 30 28  2  0  0  0
 30 29  2  0  0  0
M  CHG  1  26  -1
M  END
> <rmsd>
0.510328889

$$$$
ZINC16924300


 30 32  0  0  0  0  0  0  0  0999 V2000
   -3.3051   -1.0760    0.4571 C   0  0  0  0  0
   -4.1996   -1.4381   -1.7579 C   0  0  0  0  0
    2.2741   -1.1746    0.1946 C   0  0  0  0  0
   -3.3950   -2.4435    0.7169 C   0  0  0  0  0
   -4.2896   -2.8056   -1.4980 C   0  0  0  0  0
    1.4228   -1.1355    1.2988 C   0  0  0  0  0
    1.1553    0.7537   -0.7363 C   0  0  0  0  0
   -3.7076   -0.5734   -0.7804 C   0  0  0  0  0
    0.3040    0.7929    0.3679 C   0  0  0  0  0
    2.1404   -0.2300   -0.8230 C   0  0  0  0  0
   -3.8872   -3.3083   -0.2606 C   0  0  0  0  0
    0.4378   -0.1518    1.3855 C   0  0  0  0  0
   -3.7365    1.7878   -0.0281 C   0  0  0  0  0
   -3.4140    1.3228   -2.3355 C   0  0  0  0  0
   -0.9498    2.8047   -0.4821 C   0  0  0  0  0
   -3.4529    3.1860   -0.5256 C   0  0  0  0  0
   -2.7737   -6.6431    0.5314 C   0  0  0  0  0
   -2.1075    3.6736   -0.0136 C   0  0  0  0  0
   -3.0208   -5.1954    0.8987 C   0  0  0  0  0
   -3.6142    0.8375   -1.0487 N   0  0  0  0  0
   -0.6901    1.7974    0.4427 N   0  0  0  0  0
    3.0081   -0.2696   -1.9464 N   0  0  0  0  0
    3.8878   -1.1624   -2.0038 O   0  0  0  0  0
   -4.0542    1.5963    1.1435 O   0  0  0  0  0
   -3.1884    0.7153   -3.3717 O   0  0  0  0  0
   -0.3660    3.0140   -1.5402 O   0  0  0  0  0
    2.8710    0.5890   -2.8511 O   0  0  0  0  0
   -0.3839   -0.1309    2.4728 O   0  0  0  0  0
   -3.9748   -4.6425   -0.0068 O   0  0  0  0  0
   -3.4525    3.0772   -2.3244 S   0  0  0  0  0
  1  8  1  0  0  0
  2  5  1  0  0  0
  3 10  1  0  0  0
  4 11  1  0  0  0
  6 12  1  0  0  0
  7  9  1  0  0  0
  8 20  1  0  0  0
  9 21  1  0  0  0
 10 22  1  0  0  0
 11 29  1  0  0  0
 12 28  1  0  0  0
 13 20  1  0  0  0
 14 20  1  0  0  0
 14 30  1  0  0  0
 15 21  1  0  0  0
 16 13  1  0  0  0
 16 18  1  0  0  0
 16 30  1  0  0  0
 17 19  1  0  0  0
 18 15  1  0  0  0
 19 29  1  0  0  0
 22 23  1  0  0  0
  1  4  2  0  0  0
  2  8  2  0  0  0
  3  6  2  0  0  0
  5 11  2  0  0  0
  7 10  2  0  0  0
  9 12  2  0  0  0
 13 24  2  0  0  0
 14 25  2  0  0  0
 15 26  2  0  0  0
 22 27  2  0  0  0
M  CHG  2  22   1  23  -1
M  END
> <rmsd>
0.400369793

$$$$
ZINC32961662


 30 32  0  0  0  0  0  0  0  0999 V2000
    7.6001    2.4920   -8.0209 C   0  0  0  0  0
    0.8691    2.5247   -2.5707 C   0  0  0  0  0
   -0.1068    2.5014   -1.5743 C   0  0  0  0  0
   -3.5397   -2.5657    0.5396 C   0  0  0  0  0
   -2.9054   -2.3072   -1.7772 C   0  0  0  0  0
   -3.3760   -1.1948    0.7374 C   0  0  0  0  0
   -2.7417   -0.9362   -1.5794 C   0  0  0  0  0
    0.8585    0.4768   -0.6763 C   0  0  0  0  0
    1.8344    0.5001   -1.6727 C   0  0  0  0  0
    1.8396    1.5241   -2.6199 C   0  0  0  0  0
   -0.1121    1.4774   -0.6271 C   0  0  0  0  0
   -3.3044   -3.1220   -0.7178 C   0  0  0  0  0
   -2.9770   -0.3800   -0.3220 C   0  0  0  0  0
    2.8492   -0.5700   -1.7021 C   0  0  0  0  0
    3.7058    2.7216   -3.7271 C   0  0  0  0  0
    2.5229    0.8734   -4.8903 C   0  0  0  0  0
    4.9652    2.3587   -4.5181 C   0  0  0  0  0
    3.8204    0.5696   -5.6428 C   0  0  0  0  0
    6.3851    2.7607   -7.2374 C   0  0  0  0  0
    5.8310    1.4946   -6.5926 C   0  0  0  0  0
    8.5589    2.2822   -8.6396 N   0  0  0  0  0
    2.8098    1.5655   -3.6275 N   0  0  0  0  0
    4.6208    1.7868   -5.8254 N   0  0  0  0  0
   -1.1113    1.4539    0.3924 N   0  0  0  0  0
    2.6044   -1.6332   -2.3835 O   0  0  0  0  0
    3.9421   -0.4015   -1.0450 O   0  0  0  0  0
   -3.5970    1.7231    1.0632 O   0  0  0  0  0
   -2.9649    2.0181   -1.3478 O   0  0  0  0  0
   -3.4603   -4.4389   -0.9074 F   0  0  0  0  0
   -2.7679    1.3595   -0.0708 S   0  0  0  0  0
  2 10  1  0  0  0
  3 11  1  0  0  0
  4  6  1  0  0  0
  5 12  1  0  0  0
  7 13  1  0  0  0
  8  9  1  0  0  0
  9 14  1  0  0  0
 10 22  1  0  0  0
 11 24  1  0  0  0
 12 29  1  0  0  0
 14 25  1  0  0  0
 15 17  1  0  0  0
 15 22  1  0  0  0
 16 18  1  0  0  0
 16 22  1  0  0  0
 17 23  1  0  0  0
 18 23  1  0  0  0
 19  1  1  0  0  0
 19 20  1  0  0  0
 20 23  1  0  0  0
 30 13  1  0  0  0
 30 24  1  0  0  0
  2  3  2  0  0  0
  4 12  2  0  0  0
  5  7  2  0  0  0
  6 13  2  0  0  0
  8 11  2  0  0  0
  9 10  2  0  0  0
 14 26  2  0  0  0
 30 27  2  0  0  0
 30 28  2  0  0  0
  1 21  3  0  0  0
M  CHG  1  25  -1
M  END
> <rmsd>
0.526554108

$$$$
ZINC32961662


 30 32  0  0  0  0  0  0  0  0999 V2000
    8.2111    3.4716   -6.9830 C   0  0  0  0  0
    1.0211    2.8840   -2.1902 C   0  0  0  0  0
   -0.0383    2.7670   -1.2904 C   0  0  0  0  0
   -3.2446   -2.5880    0.4336 C   0  0  0  0  0
   -2.4200   -2.2383   -1.8102 C   0  0  0  0  0
   -3.2080   -1.2125    0.6615 C   0  0  0  0  0
   -2.3834   -0.8627   -1.5823 C   0  0  0  0  0
    0.9953    0.8064   -0.3286 C   0  0  0  0  0
    2.0547    0.9234   -1.2284 C   0  0  0  0  0
    2.0676    1.9622   -2.1592 C   0  0  0  0  0
   -0.0511    1.7282   -0.3596 C   0  0  0  0  0
   -2.8505   -3.1010   -0.8023 C   0  0  0  0  0
   -2.7774   -0.3498   -0.3464 C   0  0  0  0  0
    3.1486   -0.0646   -1.1743 C   0  0  0  0  0
    3.9288    3.3203   -3.0723 C   0  0  0  0  0
    3.0077    1.4086   -4.3625 C   0  0  0  0  0
    5.2808    3.0704   -3.7454 C   0  0  0  0  0
    4.3894    1.2196   -4.9930 C   0  0  0  0  0
    6.9113    3.6312   -6.3142 C   0  0  0  0  0
    6.4008    2.3143   -5.7389 C   0  0  0  0  0
    9.2368    3.3478   -7.5111 N   0  0  0  0  0
    3.1209    2.0970   -3.0705 N   0  0  0  0  0
    5.1053    2.4981   -5.0857 N   0  0  0  0  0
   -1.1359    1.6088    0.5612 N   0  0  0  0  0
    3.0524   -1.1307   -1.8877 O   0  0  0  0  0
    4.1592    0.1753   -0.4154 O   0  0  0  0  0
   -3.6865    1.6731    0.9981 O   0  0  0  0  0
   -2.8583    2.0608   -1.3392 O   0  0  0  0  0
   -2.8844   -4.4222   -1.0207 F   0  0  0  0  0
   -2.7297    1.3957   -0.0569 S   0  0  0  0  0
  2 10  1  0  0  0
  3 11  1  0  0  0
  4  6  1  0  0  0
  5 12  1  0  0  0
  7 13  1  0  0  0
  8  9  1  0  0  0
  9 14  1  0  0  0
 10 22  1  0  0  0
 11 24  1  0  0  0
 12 29  1  0  0  0
 14 25  1  0  0  0
 15 17  1  0  0  0
 15 22  1  0  0  0
 16 18  1  0  0  0
 16 22  1  0  0  0
 17 23  1  0  0  0
 18 23  1  0  0  0
 19  1  1  0  0  0
 19 20  1  0  0  0
 20 23  1  0  0  0
 30 13  1  0  0  0
 30 24  1  0  0  0
  2  3  2  0  0  0
  4 12  2  0  0  0
  5  7  2  0  0  0
  6 13  2  0  0  0
  8 11  2  0  0  0
  9 10  2  0  0  0
 14 26  2  0  0  0
 30 27  2  0  0  0
 30 28  2  0  0  0
  1 21  3  0  0  0
M  CHG  1  25  -1
M  END
> <rmsd>
0.707486212

$$$$
ZINC32962190


 30 32  0  0  0  0  0  0  0  0999 V2000
    0.8693    2.5243   -2.5707 C   0  0  0  0  0
   -0.1065    2.5010   -1.5744 C   0  0  0  0  0
   -3.5409   -2.5655    0.5404 C   0  0  0  0  0
   -2.9083   -2.3076   -1.7770 C   0  0  0  0  0
   -3.3755   -1.1948    0.7382 C   0  0  0  0  0
   -2.7430   -0.9367   -1.5793 C   0  0  0  0  0
    0.8590    0.4767   -0.6760 C   0  0  0  0  0
    1.8348    0.4999   -1.6725 C   0  0  0  0  0
    1.8400    1.5237   -2.6198 C   0  0  0  0  0
   -0.1118    1.4772   -0.6270 C   0  0  0  0  0
   -3.3073   -3.1220   -0.7171 C   0  0  0  0  0
   -2.9765   -0.3803   -0.3217 C   0  0  0  0  0
    2.8496   -0.5701   -1.7017 C   0  0  0  0  0
    2.5000    3.9952   -5.7647 C   0  0  0  0  0
    3.8635    4.2171   -5.1068 C   0  0  0  0  0
    2.3897    2.7155   -6.5962 C   0  0  0  0  0
    3.9573    3.7768   -3.6460 C   0  0  0  0  0
    1.7431    1.5308   -5.8786 C   0  0  0  0  0
    4.0833    2.2687   -3.4424 C   0  0  0  0  0
    2.6520    0.8184   -4.8796 C   0  0  0  0  0
   -2.7422   -6.6557   -0.2911 C   0  0  0  0  0
   -3.2260   -5.3111    0.2086 C   0  0  0  0  0
    2.8097    1.5651   -3.6271 N   0  0  0  0  0
   -1.1109    1.4537    0.3925 N   0  0  0  0  0
    2.6050   -1.6335   -2.3830 O   0  0  0  0  0
    3.9426   -0.4015   -1.0447 O   0  0  0  0  0
   -3.5966    1.7229    1.0632 O   0  0  0  0  0
   -2.9646    2.0176   -1.3478 O   0  0  0  0  0
   -3.4690   -4.4595   -0.9101 O   0  0  0  0  0
   -2.7675    1.3592   -0.0707 S   0  0  0  0  0
  1  9  1  0  0  0
  2 10  1  0  0  0
  3 11  1  0  0  0
  4  6  1  0  0  0
  5 12  1  0  0  0
  7  8  1  0  0  0
  8 13  1  0  0  0
  9 23  1  0  0  0
 10 24  1  0  0  0
 11 29  1  0  0  0
 13 25  1  0  0  0
 14 15  1  0  0  0
 14 16  1  0  0  0
 15 17  1  0  0  0
 16 18  1  0  0  0
 17 19  1  0  0  0
 18 20  1  0  0  0
 19 23  1  0  0  0
 20 23  1  0  0  0
 21 22  1  0  0  0
 22 29  1  0  0  0
 30 12  1  0  0  0
 30 24  1  0  0  0
  1  2  2  0  0  0
  3  5  2  0  0  0
  4 11  2  0  0  0
  6 12  2  0  0  0
  7 10  2  0  0  0
  8  9  2  0  0  0
 13 26  2  0  0  0
 30 27  2  0  0  0
 30 28  2  0  0  0
M  CHG  1  25  -1
M  END
> <rmsd>
0.525612533

$$$$
ZINC32962190


 30 32  0  0  0  0  0  0  0  0999 V2000
    1.0216    2.8840   -2.1899 C   0  0  0  0  0
   -0.0378    2.7669   -1.2902 C   0  0  0  0  0
   -3.2454   -2.5880    0.4343 C   0  0  0  0  0
   -2.4223   -2.2389   -1.8103 C   0  0  0  0  0
   -3.2072   -1.2125    0.6622 C   0  0  0  0  0
   -2.3842   -0.8633   -1.5823 C   0  0  0  0  0
    0.9959    0.8067   -0.3279 C   0  0  0  0  0
    2.0554    0.9237   -1.2277 C   0  0  0  0  0
    2.0682    1.9624   -2.1587 C   0  0  0  0  0
   -0.0507    1.7283   -0.3592 C   0  0  0  0  0
   -2.8528   -3.1012   -0.8019 C   0  0  0  0  0
   -2.7766   -0.3501   -0.3461 C   0  0  0  0  0
    3.1494   -0.0641   -1.1734 C   0  0  0  0  0
    2.8216    4.5357   -5.1992 C   0  0  0  0  0
    4.0964    4.8497   -4.4134 C   0  0  0  0  0
    2.8900    3.2670   -6.0519 C   0  0  0  0  0
    4.0882    4.3908   -2.9554 C   0  0  0  0  0
    2.2745    2.0227   -5.4119 C   0  0  0  0  0
    4.3128    2.8934   -2.7579 C   0  0  0  0  0
    3.1397    1.3641   -4.3398 C   0  0  0  0  0
   -2.0540   -6.5882   -0.3647 C   0  0  0  0  0
   -2.6863   -5.2944    0.1025 C   0  0  0  0  0
    3.1211    2.0972   -3.0697 N   0  0  0  0  0
   -1.1354    1.6088    0.5614 N   0  0  0  0  0
    3.0535   -1.1303   -1.8867 O   0  0  0  0  0
    4.1599    0.1760   -0.4145 O   0  0  0  0  0
   -3.6861    1.6728    0.9981 O   0  0  0  0  0
   -2.8578    2.0603   -1.3392 O   0  0  0  0  0
   -2.8903   -4.4434   -1.0245 O   0  0  0  0  0
   -2.7292    1.3954   -0.0568 S   0  0  0  0  0
  1  9  1  0  0  0
  2 10  1  0  0  0
  3 11  1  0  0  0
  4  6  1  0  0  0
  5 12  1  0  0  0
  7  8  1  0  0  0
  8 13  1  0  0  0
  9 23  1  0  0  0
 10 24  1  0  0  0
 11 29  1  0  0  0
 13 25  1  0  0  0
 14 15  1  0  0  0
 14 16  1  0  0  0
 15 17  1  0  0  0
 16 18  1  0  0  0
 17 19  1  0  0  0
 18 20  1  0  0  0
 19 23  1  0  0  0
 20 23  1  0  0  0
 21 22  1  0  0  0
 22 29  1  0  0  0
 30 12  1  0  0  0
 30 24  1  0  0  0
  1  2  2  0  0  0
  3  5  2  0  0  0
  4 11  2  0  0  0
  6 12  2  0  0  0
  7 10  2  0  0  0
  8  9  2  0  0  0
 13 26  2  0  0  0
 30 27  2  0  0  0
 30 28  2  0  0  0
M  CHG  1  25  -1
M  END
> <rmsd>
0.706728339

$$$$
ZINC58009389


 30 32  0  0  0  0  0  0  0  0999 V2000
    1.9432    1.5938   -2.4779 C   0  0  0  0  0
   -3.4455   -2.5784    0.5033 C   0  0  0  0  0
   -2.7516   -2.2964   -1.7937 C   0  0  0  0  0
    1.0439    2.6559   -2.3839 C   0  0  0  0  0
   -3.3177   -1.2049    0.7105 C   0  0  0  0  0
   -2.6240   -0.9229   -1.5865 C   0  0  0  0  0
    0.8215    0.4822   -0.6493 C   0  0  0  0  0
    1.8320    0.5069   -1.6106 C   0  0  0  0  0
   -3.1624   -3.1241   -0.7488 C   0  0  0  0  0
    0.0335    2.6312   -1.4227 C   0  0  0  0  0
   -0.0778    1.5444   -0.5554 C   0  0  0  0  0
   -2.9070   -0.3773   -0.3344 C   0  0  0  0  0
    2.7810   -0.6137   -1.7103 C   0  0  0  0  0
   -1.1527    4.4380   -2.5847 C   0  0  0  0  0
   -0.9511    4.4830   -0.1043 C   0  0  0  0  0
   -2.4994    5.1416   -2.4863 C   0  0  0  0  0
   -2.2965    5.1915   -0.0117 C   0  0  0  0  0
   -3.6959    7.7318    0.0474 C   0  0  0  0  0
   -1.9581   -5.2569   -1.3444 C   0  0  0  0  0
   -4.3629   -4.9339   -2.0286 C   0  0  0  0  0
   -3.7704    6.8364   -1.1700 C   0  0  0  0  0
   -3.2968   -4.5928   -0.9702 C   0  0  0  0  0
   -0.8585    3.7070   -1.3451 N   0  0  0  0  0
   -1.1059    1.4968    0.4384 N   0  0  0  0  0
   -2.5163    6.0129   -1.2560 N   0  0  0  0  0
    2.6570   -1.6051   -0.8976 O   0  0  0  0  0
    3.7045   -0.5660   -2.6067 O   0  0  0  0  0
   -3.6124    1.7061    1.0397 O   0  0  0  0  0
   -2.9214    2.0242   -1.3520 O   0  0  0  0  0
   -2.7444    1.3656   -0.0722 S   0  0  0  0  0
  1  8  1  0  0  0
  2  9  1  0  0  0
  3  6  1  0  0  0
  4 10  1  0  0  0
  5 12  1  0  0  0
  7 11  1  0  0  0
  8 13  1  0  0  0
 10 23  1  0  0  0
 11 24  1  0  0  0
 13 26  1  0  0  0
 14 16  1  0  0  0
 14 23  1  0  0  0
 15 17  1  0  0  0
 15 23  1  0  0  0
 16 25  1  0  0  0
 17 25  1  0  0  0
 18 21  1  0  0  0
 19 22  1  0  0  0
 20 22  1  0  0  0
 21 25  1  0  0  0
 22  9  1  0  0  0
 30 12  1  0  0  0
 30 24  1  0  0  0
  1  4  2  0  0  0
  2  5  2  0  0  0
  3  9  2  0  0  0
  6 12  2  0  0  0
  7  8  2  0  0  0
 10 11  2  0  0  0
 13 27  2  0  0  0
 30 28  2  0  0  0
 30 29  2  0  0  0
M  CHG  2  25   1  26  -1
M  END
> <rmsd>
0.589362681

$$$$
ZINC64580598


 30 32  0  0  0  0  0  0  0  0999 V2000
    0.8579    2.5122   -2.5851 C   0  0  0  0  0
   -0.1153    2.4931   -1.5861 C   0  0  0  0  0
    0.8574    0.4771   -0.6770 C   0  0  0  0  0
   -3.0214   -2.6489    0.5400 C   0  0  0  0  0
   -3.2599   -0.8604   -1.5875 C   0  0  0  0  0
    1.8305    0.4961   -1.6762 C   0  0  0  0  0
   -3.3063   -3.1226   -0.7406 C   0  0  0  0  0
   -2.8559   -1.2811    0.7570 C   0  0  0  0  0
   -3.4256   -2.2283   -1.8044 C   0  0  0  0  0
    1.8308    1.5137   -2.6302 C   0  0  0  0  0
   -0.1156    1.4756   -0.6320 C   0  0  0  0  0
   -2.9751   -0.3868   -0.3069 C   0  0  0  0  0
    2.8478   -0.5717   -1.7011 C   0  0  0  0  0
    4.0402    2.2858   -3.3675 C   0  0  0  0  0
    2.3809    1.4945   -5.0455 C   0  0  0  0  0
    5.1722    1.7736   -4.2478 C   0  0  0  0  0
    3.5173    0.9885   -5.9249 C   0  0  0  0  0
   -3.4796   -4.5913   -0.9487 C   0  0  0  0  0
   -2.5507   -0.8063    2.1402 C   0  0  0  0  0
   -3.7304   -2.7125   -3.1841 C   0  0  0  0  0
    5.3895    1.6035   -8.0536 C   0  0  0  0  0
    5.8638    1.4626   -6.6238 C   0  0  0  0  0
    2.7984    1.5508   -3.6409 N   0  0  0  0  0
   -1.1120    1.4564    0.3904 N   0  0  0  0  0
    4.7442    1.8323   -5.6922 N   0  0  0  0  0
    2.6040   -1.6400   -2.3747 O   0  0  0  0  0
    3.9421   -0.3961   -1.0480 O   0  0  0  0  0
   -3.5966    1.7240    1.0659 O   0  0  0  0  0
   -2.9717    2.0044   -1.3487 O   0  0  0  0  0
   -2.7696    1.3549   -0.0679 S   0  0  0  0  0
  1 10  1  0  0  0
  2 11  1  0  0  0
  3  6  1  0  0  0
  4  8  1  0  0  0
  5 12  1  0  0  0
  6 13  1  0  0  0
  7  9  1  0  0  0
 10 23  1  0  0  0
 11 24  1  0  0  0
 13 26  1  0  0  0
 14 16  1  0  0  0
 14 23  1  0  0  0
 15 17  1  0  0  0
 15 23  1  0  0  0
 16 25  1  0  0  0
 17 25  1  0  0  0
 18  7  1  0  0  0
 19  8  1  0  0  0
 20  9  1  0  0  0
 21 22  1  0  0  0
 22 25  1  0  0  0
 30 12  1  0  0  0
 30 24  1  0  0  0
  1  2  2  0  0  0
  3 11  2  0  0  0
  4  7  2  0  0  0
  5  9  2  0  0  0
  6 10  2  0  0  0
  8 12  2  0  0  0
 13 27  2  0  0  0
 30 28  2  0  0  0
 30 29  2  0  0  0
M  CHG  2  25   1  26  -1
M  END
> <rmsd>
0.528393507

$$$$
ZINC64580598


 30 32  0  0  0  0  0  0  0  0999 V2000
    1.0095    2.8744   -2.2074 C   0  0  0  0  0
   -0.0471    2.7608   -1.3040 C   0  0  0  0  0
    0.9939    0.8092   -0.3320 C   0  0  0  0  0
   -2.7215   -2.6310    0.4802 C   0  0  0  0  0
   -2.9033   -0.8259   -1.6390 C   0  0  0  0  0
    2.0505    0.9228   -1.2356 C   0  0  0  0  0
   -2.8487   -3.1007   -0.8270 C   0  0  0  0  0
   -2.6853   -1.2588    0.7278 C   0  0  0  0  0
   -2.9397   -2.1982   -1.8866 C   0  0  0  0  0
    2.0583    1.9554   -2.1733 C   0  0  0  0  0
   -0.0550    1.7282   -0.3662 C   0  0  0  0  0
   -2.7762   -0.3562   -0.3318 C   0  0  0  0  0
    3.1469   -0.0622   -1.1779 C   0  0  0  0  0
    4.2584    2.9106   -2.6917 C   0  0  0  0  0
    2.8286    2.0252   -4.5267 C   0  0  0  0  0
    5.5036    2.5047   -3.4684 C   0  0  0  0  0
    4.0777    1.6258   -5.3019 C   0  0  0  0  0
   -2.8855   -4.5742   -1.0677 C   0  0  0  0  0
   -2.5474   -0.7883    2.1391 C   0  0  0  0  0
   -3.0767   -2.6780   -3.2944 C   0  0  0  0  0
    6.0837    2.4248   -7.2390 C   0  0  0  0  0
    6.4338    2.2938   -5.7729 C   0  0  0  0  0
    3.1090    2.0868   -3.0886 N   0  0  0  0  0
   -1.1367    1.6123    0.5582 N   0  0  0  0  0
    5.2073    2.5576   -4.9457 N   0  0  0  0  0
    3.0514   -1.1331   -1.8841 O   0  0  0  0  0
    4.1590    0.1852   -0.4234 O   0  0  0  0  0
   -3.6864    1.6733    1.0018 O   0  0  0  0  0
   -2.8656    2.0475   -1.3404 O   0  0  0  0  0
   -2.7318    1.3912   -0.0541 S   0  0  0  0  0
  1 10  1  0  0  0
  2 11  1  0  0  0
  3  6  1  0  0  0
  4  8  1  0  0  0
  5 12  1  0  0  0
  6 13  1  0  0  0
  7  9  1  0  0  0
 10 23  1  0  0  0
 11 24  1  0  0  0
 13 26  1  0  0  0
 14 16  1  0  0  0
 14 23  1  0  0  0
 15 17  1  0  0  0
 15 23  1  0  0  0
 16 25  1  0  0  0
 17 25  1  0  0  0
 18  7  1  0  0  0
 19  8  1  0  0  0
 20  9  1  0  0  0
 21 22  1  0  0  0
 22 25  1  0  0  0
 30 12  1  0  0  0
 30 24  1  0  0  0
  1  2  2  0  0  0
  3 11  2  0  0  0
  4  7  2  0  0  0
  5  9  2  0  0  0
  6 10  2  0  0  0
  8 12  2  0  0  0
 13 27  2  0  0  0
 30 28  2  0  0  0
 30 29  2  0  0  0
M  CHG  2  25   1  26  -1
M  END
> <rmsd>
0.710047424

$$$$
ZINC64580555


 30 32  0  0  0  0  0  0  0  0999 V2000
   -2.4220   -2.2391   -1.8098 C   0  0  0  0  0
   -3.2459   -2.5877    0.4343 C   0  0  0  0  0
    1.0212    2.8843   -2.1897 C   0  0  0  0  0
   -0.0383    2.7671   -1.2902 C   0  0  0  0  0
   -2.3841   -0.8635   -1.5823 C   0  0  0  0  0
   -3.2081   -1.2120    0.6619 C   0  0  0  0  0
    0.9954    0.8068   -0.3281 C   0  0  0  0  0
    2.0549    0.9239   -1.2278 C   0  0  0  0  0
   -2.8529   -3.1013   -0.8016 C   0  0  0  0  0
    2.0678    1.9626   -2.1586 C   0  0  0  0  0
   -0.0512    1.7284   -0.3593 C   0  0  0  0  0
   -2.7772   -0.3500   -0.3464 C   0  0  0  0  0
    3.1489   -0.0640   -1.1736 C   0  0  0  0  0
    4.2715    2.9161   -2.6644 C   0  0  0  0  0
    2.8451    2.0462   -4.5093 C   0  0  0  0  0
    5.5181    2.5125   -3.4402 C   0  0  0  0  0
    4.0954    1.6490   -5.2836 C   0  0  0  0  0
   -1.4808   -5.1285   -1.3957 C   0  0  0  0  0
   -3.8459   -4.9217   -2.2323 C   0  0  0  0  0
   -3.3969   -5.4377    0.1581 C   0  0  0  0  0
    6.4545    2.3147   -5.7434 C   0  0  0  0  0
   -2.8956   -4.5719   -1.0452 C   0  0  0  0  0
    3.1214    2.0976   -3.0701 N   0  0  0  0  0
   -1.1359    1.6088    0.5613 N   0  0  0  0  0
    5.2262    2.5759   -4.9179 N   0  0  0  0  0
    3.0530   -1.1300   -1.8870 O   0  0  0  0  0
    4.1594    0.1761   -0.4145 O   0  0  0  0  0
   -3.6867    1.6728    0.9979 O   0  0  0  0  0
   -2.8582    2.0606   -1.3394 O   0  0  0  0  0
   -2.7297    1.3955   -0.0570 S   0  0  0  0  0
  1  9  1  0  0  0
  2  6  1  0  0  0
  3 10  1  0  0  0
  4 11  1  0  0  0
  5 12  1  0  0  0
  7  8  1  0  0  0
  8 13  1  0  0  0
 10 23  1  0  0  0
 11 24  1  0  0  0
 13 26  1  0  0  0
 14 16  1  0  0  0
 14 23  1  0  0  0
 15 17  1  0  0  0
 15 23  1  0  0  0
 16 25  1  0  0  0
 17 25  1  0  0  0
 18 22  1  0  0  0
 19 22  1  0  0  0
 20 22  1  0  0  0
 21 25  1  0  0  0
 22  9  1  0  0  0
 30 12  1  0  0  0
 30 24  1  0  0  0
  1  5  2  0  0  0
  2  9  2  0  0  0
  3  4  2  0  0  0
  6 12  2  0  0  0
  7 11  2  0  0  0
  8 10  2  0  0  0
 13 27  2  0  0  0
 30 28  2  0  0  0
 30 29  2  0  0  0
M  CHG  2  25   1  26  -1
M  END
> <rmsd>
0.706489921

$$$$
ZINC64580555


 30 32  0  0  0  0  0  0  0  0999 V2000
   -2.9076   -2.3078   -1.7768 C   0  0  0  0  0
   -3.5410   -2.5653    0.5403 C   0  0  0  0  0
    0.8690    2.5251   -2.5704 C   0  0  0  0  0
   -0.1069    2.5015   -1.5742 C   0  0  0  0  0
   -2.7426   -0.9369   -1.5794 C   0  0  0  0  0
   -3.3761   -1.1943    0.7378 C   0  0  0  0  0
    0.8586    0.4772   -0.6762 C   0  0  0  0  0
    1.8345    0.5006   -1.6725 C   0  0  0  0  0
   -3.3068   -3.1220   -0.7170 C   0  0  0  0  0
    1.8397    1.5246   -2.6197 C   0  0  0  0  0
   -0.1122    1.4777   -0.6270 C   0  0  0  0  0
   -2.9768   -0.3802   -0.3221 C   0  0  0  0  0
    2.8494   -0.5694   -1.7018 C   0  0  0  0  0
    4.0530    2.2965   -3.3458 C   0  0  0  0  0
    2.3964    1.5203   -5.0336 C   0  0  0  0  0
    5.1861    1.7876   -4.2265 C   0  0  0  0  0
    3.5340    1.0176   -5.9132 C   0  0  0  0  0
   -2.1570   -5.2572   -1.3983 C   0  0  0  0  0
   -4.5674   -4.8749   -2.0150 C   0  0  0  0  0
   -3.9365   -5.3975    0.3324 C   0  0  0  0  0
    5.8835    1.4909   -6.6027 C   0  0  0  0  0
   -3.4854   -4.5874   -0.9282 C   0  0  0  0  0
    2.8101    1.5662   -3.6275 N   0  0  0  0  0
   -1.1113    1.4540    0.3925 N   0  0  0  0  0
    4.7621    1.8570   -5.6716 N   0  0  0  0  0
    2.6049   -1.6326   -2.3833 O   0  0  0  0  0
    3.9423   -0.4007   -1.0446 O   0  0  0  0  0
   -3.5972    1.7227    1.0631 O   0  0  0  0  0
   -2.9650    2.0179   -1.3479 O   0  0  0  0  0
   -2.7680    1.3594   -0.0709 S   0  0  0  0  0
  1  9  1  0  0  0
  2  6  1  0  0  0
  3 10  1  0  0  0
  4 11  1  0  0  0
  5 12  1  0  0  0
  7  8  1  0  0  0
  8 13  1  0  0  0
 10 23  1  0  0  0
 11 24  1  0  0  0
 13 26  1  0  0  0
 14 16  1  0  0  0
 14 23  1  0  0  0
 15 17  1  0  0  0
 15 23  1  0  0  0
 16 25  1  0  0  0
 17 25  1  0  0  0
 18 22  1  0  0  0
 19 22  1  0  0  0
 20 22  1  0  0  0
 21 25  1  0  0  0
 22  9  1  0  0  0
 30 12  1  0  0  0
 30 24  1  0  0  0
  1  5  2  0  0  0
  2  9  2  0  0  0
  3  4  2  0  0  0
  6 12  2  0  0  0
  7 11  2  0  0  0
  8 10  2  0  0  0
 13 27  2  0  0  0
 30 28  2  0  0  0
 30 29  2  0  0  0
M  CHG  2  25   1  26  -1
M  END
> <rmsd>
0.525784492

$$$$
ZINC64580569


 30 32  0  0  0  0  0  0  0  0999 V2000
   -3.2447   -2.5886    0.4336 C   0  0  0  0  0
   -2.4210   -2.2383   -1.8105 C   0  0  0  0  0
    1.0208    2.8835   -2.1909 C   0  0  0  0  0
   -0.0385    2.7666   -1.2911 C   0  0  0  0  0
   -3.2076   -1.2131    0.6619 C   0  0  0  0  0
   -2.3840   -0.8628   -1.5822 C   0  0  0  0  0
    0.9953    0.8066   -0.3287 C   0  0  0  0  0
    2.0546    0.9234   -1.2286 C   0  0  0  0  0
   -2.8513   -3.1012   -0.8026 C   0  0  0  0  0
    2.0674    1.9619   -2.1597 C   0  0  0  0  0
   -0.0513    1.7282   -0.3599 C   0  0  0  0  0
   -2.7774   -0.3501   -0.3460 C   0  0  0  0  0
    3.1486   -0.0645   -1.1743 C   0  0  0  0  0
    4.2710    2.9152   -2.6662 C   0  0  0  0  0
    2.8442    2.0448   -4.5106 C   0  0  0  0  0
    5.5174    2.5114   -3.4420 C   0  0  0  0  0
    4.0944    1.6474   -5.2850 C   0  0  0  0  0
   -1.5770   -5.2565   -0.6706 C   0  0  0  0  0
    8.5412    3.3736   -6.6455 C   0  0  0  0  0
   -2.8887   -4.5719   -1.0463 C   0  0  0  0  0
    7.3055    3.5715   -5.7826 C   0  0  0  0  0
    6.4534    2.3129   -5.7453 C   0  0  0  0  0
    3.1208    2.0966   -3.0714 N   0  0  0  0  0
   -1.1359    1.6089    0.5609 N   0  0  0  0  0
    5.2253    2.5743   -4.9197 N   0  0  0  0  0
    3.0526   -1.1307   -1.8874 O   0  0  0  0  0
    4.1592    0.1758   -0.4155 O   0  0  0  0  0
   -3.6866    1.6730    0.9979 O   0  0  0  0  0
   -2.8585    2.0601   -1.3396 O   0  0  0  0  0
   -2.7298    1.3954   -0.0571 S   0  0  0  0  0
  1  9  1  0  0  0
  2  6  1  0  0  0
  3 10  1  0  0  0
  4 11  1  0  0  0
  5 12  1  0  0  0
  7  8  1  0  0  0
  8 13  1  0  0  0
 10 23  1  0  0  0
 11 24  1  0  0  0
 13 26  1  0  0  0
 14 16  1  0  0  0
 14 23  1  0  0  0
 15 17  1  0  0  0
 15 23  1  0  0  0
 16 25  1  0  0  0
 17 25  1  0  0  0
 18 20  1  0  0  0
 19 21  1  0  0  0
 20  9  1  0  0  0
 21 22  1  0  0  0
 22 25  1  0  0  0
 30 12  1  0  0  0
 30 24  1  0  0  0
  1  5  2  0  0  0
  2  9  2  0  0  0
  3  4  2  0  0  0
  6 12  2  0  0  0
  7 11  2  0  0  0
  8 10  2  0  0  0
 13 27  2  0  0  0
 30 28  2  0  0  0
 30 29  2  0  0  0
M  CHG  2  25   1  26  -1
M  END
> <rmsd>
0.707231522

$$$$
ZINC64580569


 30 32  0  0  0  0  0  0  0  0999 V2000
   -3.5400   -2.5662    0.5397 C   0  0  0  0  0
   -2.9067   -2.3071   -1.7775 C   0  0  0  0  0
    0.8685    2.5242   -2.5715 C   0  0  0  0  0
   -0.1073    2.5010   -1.5751 C   0  0  0  0  0
   -3.3757   -1.1954    0.7379 C   0  0  0  0  0
   -2.7424   -0.9362   -1.5793 C   0  0  0  0  0
    0.8584    0.4769   -0.6766 C   0  0  0  0  0
    1.8342    0.5000   -1.6731 C   0  0  0  0  0
   -3.3054   -3.1221   -0.7180 C   0  0  0  0  0
    1.8392    1.5237   -2.6206 C   0  0  0  0  0
   -0.1123    1.4774   -0.6276 C   0  0  0  0  0
   -2.9770   -0.3803   -0.3216 C   0  0  0  0  0
    2.8490   -0.5700   -1.7023 C   0  0  0  0  0
    4.0523    2.2953   -3.3474 C   0  0  0  0  0
    2.3954    1.5187   -5.0346 C   0  0  0  0  0
    5.1853    1.7862   -4.2281 C   0  0  0  0  0
    3.5328    1.0156   -5.9143 C   0  0  0  0  0
   -2.1942   -5.3691   -0.6649 C   0  0  0  0  0
    7.9515    2.3721   -7.7143 C   0  0  0  0  0
   -3.4788   -4.5880   -0.9298 C   0  0  0  0  0
    6.8215    2.6761   -6.7440 C   0  0  0  0  0
    5.8822    1.4888   -6.6043 C   0  0  0  0  0
    2.8094    1.5650   -3.6286 N   0  0  0  0  0
   -1.1113    1.4540    0.3921 N   0  0  0  0  0
    4.7611    1.8551   -5.6731 N   0  0  0  0  0
    2.6044   -1.6334   -2.3834 O   0  0  0  0  0
    3.9421   -0.4011   -1.0453 O   0  0  0  0  0
   -3.5971    1.7230    1.0631 O   0  0  0  0  0
   -2.9653    2.0174   -1.3481 O   0  0  0  0  0
   -2.7681    1.3593   -0.0710 S   0  0  0  0  0
  1  9  1  0  0  0
  2  6  1  0  0  0
  3 10  1  0  0  0
  4 11  1  0  0  0
  5 12  1  0  0  0
  7  8  1  0  0  0
  8 13  1  0  0  0
 10 23  1  0  0  0
 11 24  1  0  0  0
 13 26  1  0  0  0
 14 16  1  0  0  0
 14 23  1  0  0  0
 15 17  1  0  0  0
 15 23  1  0  0  0
 16 25  1  0  0  0
 17 25  1  0  0  0
 18 20  1  0  0  0
 19 21  1  0  0  0
 20  9  1  0  0  0
 21 22  1  0  0  0
 22 25  1  0  0  0
 30 12  1  0  0  0
 30 24  1  0  0  0
  1  5  2  0  0  0
  2  9  2  0  0  0
  3  4  2  0  0  0
  6 12  2  0  0  0
  7 11  2  0  0  0
  8 10  2  0  0  0
 13 27  2  0  0  0
 30 28  2  0  0  0
 30 29  2  0  0  0
M  CHG  2  25   1  26  -1
M  END
> <rmsd>
0.526277661

$$$$
ZINC64580585


 30 32  0  0  0  0  0  0  0  0999 V2000
   -3.2449   -2.5886    0.4337 C   0  0  0  0  0
   -2.4212   -2.2384   -1.8105 C   0  0  0  0  0
    1.0206    2.8835   -2.1908 C   0  0  0  0  0
   -0.0387    2.7666   -1.2910 C   0  0  0  0  0
   -3.2078   -1.2131    0.6620 C   0  0  0  0  0
   -2.3841   -0.8628   -1.5822 C   0  0  0  0  0
    0.9952    0.8065   -0.3286 C   0  0  0  0  0
    2.0545    0.9234   -1.2286 C   0  0  0  0  0
   -2.8515   -3.1013   -0.8025 C   0  0  0  0  0
    2.0672    1.9618   -2.1597 C   0  0  0  0  0
   -0.0515    1.7281   -0.3598 C   0  0  0  0  0
   -2.7775   -0.3502   -0.3459 C   0  0  0  0  0
    3.1485   -0.0646   -1.1742 C   0  0  0  0  0
    4.2709    2.9152   -2.6661 C   0  0  0  0  0
    2.8441    2.0447   -4.5105 C   0  0  0  0  0
    5.5173    2.5113   -3.4420 C   0  0  0  0  0
    4.0943    1.6473   -5.2849 C   0  0  0  0  0
    6.1074    2.4539   -7.2114 C   0  0  0  0  0
   -1.4938   -5.1563   -1.3389 C   0  0  0  0  0
   -3.8636   -4.9575   -2.1752 C   0  0  0  0  0
    6.4532    2.3128   -5.7453 C   0  0  0  0  0
   -2.8889   -4.5720   -1.0463 C   0  0  0  0  0
    3.1207    2.0966   -3.0713 N   0  0  0  0  0
   -1.1360    1.6088    0.5610 N   0  0  0  0  0
    5.2251    2.5743   -4.9197 N   0  0  0  0  0
    3.0524   -1.1308   -1.8873 O   0  0  0  0  0
    4.1591    0.1758   -0.4154 O   0  0  0  0  0
   -3.6867    1.6729    0.9980 O   0  0  0  0  0
   -2.8587    2.0600   -1.3396 O   0  0  0  0  0
   -2.7299    1.3953   -0.0571 S   0  0  0  0  0
  1  9  1  0  0  0
  2  6  1  0  0  0
  3 10  1  0  0  0
  4 11  1  0  0  0
  5 12  1  0  0  0
  7  8  1  0  0  0
  8 13  1  0  0  0
 10 23  1  0  0  0
 11 24  1  0  0  0
 13 26  1  0  0  0
 14 16  1  0  0  0
 14 23  1  0  0  0
 15 17  1  0  0  0
 15 23  1  0  0  0
 16 25  1  0  0  0
 17 25  1  0  0  0
 18 21  1  0  0  0
 19 22  1  0  0  0
 20 22  1  0  0  0
 21 25  1  0  0  0
 22  9  1  0  0  0
 30 12  1  0  0  0
 30 24  1  0  0  0
  1  5  2  0  0  0
  2  9  2  0  0  0
  3  4  2  0  0  0
  6 12  2  0  0  0
  7 11  2  0  0  0
  8 10  2  0  0  0
 13 27  2  0  0  0
 30 28  2  0  0  0
 30 29  2  0  0  0
M  CHG  2  25   1  26  -1
M  END
> <rmsd>
0.7072317

$$$$
ZINC64580585


 30 32  0  0  0  0  0  0  0  0999 V2000
   -3.5401   -2.5663    0.5397 C   0  0  0  0  0
   -2.9068   -2.3072   -1.7774 C   0  0  0  0  0
    0.8684    2.5241   -2.5714 C   0  0  0  0  0
   -0.1074    2.5009   -1.5750 C   0  0  0  0  0
   -3.3759   -1.1954    0.7379 C   0  0  0  0  0
   -2.7426   -0.9363   -1.5792 C   0  0  0  0  0
    0.8583    0.4768   -0.6765 C   0  0  0  0  0
    1.8340    0.5000   -1.6731 C   0  0  0  0  0
   -3.3056   -3.1222   -0.7179 C   0  0  0  0  0
    1.8391    1.5236   -2.6205 C   0  0  0  0  0
   -0.1125    1.4773   -0.6275 C   0  0  0  0  0
   -2.9771   -0.3804   -0.3215 C   0  0  0  0  0
    2.8489   -0.5701   -1.7022 C   0  0  0  0  0
    4.0522    2.2953   -3.3473 C   0  0  0  0  0
    2.3953    1.5186   -5.0345 C   0  0  0  0  0
    5.1851    1.7861   -4.2280 C   0  0  0  0  0
    3.5327    1.0156   -5.9142 C   0  0  0  0  0
    5.4117    1.6399   -8.0342 C   0  0  0  0  0
   -2.1668   -5.2833   -1.3398 C   0  0  0  0  0
   -4.5824   -4.9087   -1.9557 C   0  0  0  0  0
    5.8821    1.4887   -6.6042 C   0  0  0  0  0
   -3.4790   -4.5881   -0.9297 C   0  0  0  0  0
    2.8093    1.5649   -3.6285 N   0  0  0  0  0
   -1.1115    1.4539    0.3922 N   0  0  0  0  0
    4.7609    1.8551   -5.6730 N   0  0  0  0  0
    2.6043   -1.6335   -2.3834 O   0  0  0  0  0
    3.9419   -0.4012   -1.0453 O   0  0  0  0  0
   -3.5972    1.7229    1.0632 O   0  0  0  0  0
   -2.9655    2.0174   -1.3480 O   0  0  0  0  0
   -2.7682    1.3592   -0.0709 S   0  0  0  0  0
  1  9  1  0  0  0
  2  6  1  0  0  0
  3 10  1  0  0  0
  4 11  1  0  0  0
  5 12  1  0  0  0
  7  8  1  0  0  0
  8 13  1  0  0  0
 10 23  1  0  0  0
 11 24  1  0  0  0
 13 26  1  0  0  0
 14 16  1  0  0  0
 14 23  1  0  0  0
 15 17  1  0  0  0
 15 23  1  0  0  0
 16 25  1  0  0  0
 17 25  1  0  0  0
 18 21  1  0  0  0
 19 22  1  0  0  0
 20 22  1  0  0  0
 21 25  1  0  0  0
 22  9  1  0  0  0
 30 12  1  0  0  0
 30 24  1  0  0  0
  1  5  2  0  0  0
  2  9  2  0  0  0
  3  4  2  0  0  0
  6 12  2  0  0  0
  7 11  2  0  0  0
  8 10  2  0  0  0
 13 27  2  0  0  0
 30 28  2  0  0  0
 30 29  2  0  0  0
M  CHG  2  25   1  26  -1
M  END
> <rmsd>
0.526277721

$$$$
ZINC64580548


 30 32  0  0  0  0  0  0  0  0999 V2000
   -3.2444   -2.5884    0.4338 C   0  0  0  0  0
   -2.4207   -2.2380   -1.8103 C   0  0  0  0  0
    1.0211    2.8838   -2.1905 C   0  0  0  0  0
   -0.0382    2.7669   -1.2907 C   0  0  0  0  0
   -3.2074   -1.2128    0.6622 C   0  0  0  0  0
   -2.3836   -0.8625   -1.5820 C   0  0  0  0  0
    0.9956    0.8068   -0.3283 C   0  0  0  0  0
    2.0549    0.9237   -1.2282 C   0  0  0  0  0
   -2.8510   -3.1010   -0.8024 C   0  0  0  0  0
    2.0677    1.9622   -2.1593 C   0  0  0  0  0
   -0.0510    1.7285   -0.3595 C   0  0  0  0  0
   -2.7771   -0.3499   -0.3457 C   0  0  0  0  0
    3.1489   -0.0642   -1.1739 C   0  0  0  0  0
    4.2714    2.9156   -2.6657 C   0  0  0  0  0
    2.8446    2.0451   -4.5101 C   0  0  0  0  0
    5.5178    2.5117   -3.4415 C   0  0  0  0  0
    4.0948    1.6478   -5.2845 C   0  0  0  0  0
   -1.2283   -5.1524    0.7999 C   0  0  0  0  0
   -1.6998   -6.8033   -1.0212 C   0  0  0  0  0
    6.4538    2.3133   -5.7448 C   0  0  0  0  0
   -2.8884   -4.5717   -1.0462 C   0  0  0  0  0
   -1.5801   -5.3156   -0.6810 C   0  0  0  0  0
    3.1212    2.0970   -3.0710 N   0  0  0  0  0
   -1.1356    1.6091    0.5613 N   0  0  0  0  0
    5.2256    2.5747   -4.9192 N   0  0  0  0  0
    3.0529   -1.1304   -1.8870 O   0  0  0  0  0
    4.1595    0.1761   -0.4150 O   0  0  0  0  0
   -3.6863    1.6732    0.9982 O   0  0  0  0  0
   -2.8582    2.0604   -1.3393 O   0  0  0  0  0
   -2.7295    1.3957   -0.0568 S   0  0  0  0  0
  1  9  1  0  0  0
  2  6  1  0  0  0
  3 10  1  0  0  0
  4 11  1  0  0  0
  5 12  1  0  0  0
  7  8  1  0  0  0
  8 13  1  0  0  0
 10 23  1  0  0  0
 11 24  1  0  0  0
 13 26  1  0  0  0
 14 16  1  0  0  0
 14 23  1  0  0  0
 15 17  1  0  0  0
 15 23  1  0  0  0
 16 25  1  0  0  0
 17 25  1  0  0  0
 18 22  1  0  0  0
 19 22  1  0  0  0
 20 25  1  0  0  0
 21  9  1  0  0  0
 21 22  1  0  0  0
 30 12  1  0  0  0
 30 24  1  0  0  0
  1  5  2  0  0  0
  2  9  2  0  0  0
  3  4  2  0  0  0
  6 12  2  0  0  0
  7 11  2  0  0  0
  8 10  2  0  0  0
 13 27  2  0  0  0
 30 28  2  0  0  0
 30 29  2  0  0  0
M  CHG  2  25   1  26  -1
M  END
> <rmsd>
0.707242429

$$$$
ZINC64580548


 30 32  0  0  0  0  0  0  0  0999 V2000
   -3.5397   -2.5660    0.5398 C   0  0  0  0  0
   -2.9063   -2.3069   -1.7773 C   0  0  0  0  0
    0.8689    2.5245   -2.5711 C   0  0  0  0  0
   -0.1069    2.5012   -1.5748 C   0  0  0  0  0
   -3.3754   -1.1952    0.7381 C   0  0  0  0  0
   -2.7420   -0.9360   -1.5790 C   0  0  0  0  0
    0.8588    0.4771   -0.6763 C   0  0  0  0  0
    1.8345    0.5003   -1.6728 C   0  0  0  0  0
   -3.3050   -3.1219   -0.7178 C   0  0  0  0  0
    1.8396    1.5240   -2.6202 C   0  0  0  0  0
   -0.1120    1.4776   -0.6272 C   0  0  0  0  0
   -2.9766   -0.3801   -0.3214 C   0  0  0  0  0
    2.8494   -0.5697   -1.7019 C   0  0  0  0  0
    4.0527    2.2957   -3.3469 C   0  0  0  0  0
    2.3959    1.5190   -5.0342 C   0  0  0  0  0
    5.1857    1.7865   -4.2276 C   0  0  0  0  0
    3.5333    1.0160   -5.9139 C   0  0  0  0  0
   -1.7016   -5.2761    0.7646 C   0  0  0  0  0
   -2.4683   -6.9054   -0.9736 C   0  0  0  0  0
    5.8827    1.4892   -6.6038 C   0  0  0  0  0
   -3.4784   -4.5878   -0.9296 C   0  0  0  0  0
   -2.2028   -5.4279   -0.6738 C   0  0  0  0  0
    2.8098    1.5653   -3.6282 N   0  0  0  0  0
   -1.1110    1.4542    0.3924 N   0  0  0  0  0
    4.7615    1.8555   -5.6727 N   0  0  0  0  0
    2.6048   -1.6331   -2.3831 O   0  0  0  0  0
    3.9424   -0.4008   -1.0449 O   0  0  0  0  0
   -3.5968    1.7232    1.0633 O   0  0  0  0  0
   -2.9650    2.0177   -1.3478 O   0  0  0  0  0
   -2.7677    1.3595   -0.0707 S   0  0  0  0  0
  1  9  1  0  0  0
  2  6  1  0  0  0
  3 10  1  0  0  0
  4 11  1  0  0  0
  5 12  1  0  0  0
  7  8  1  0  0  0
  8 13  1  0  0  0
 10 23  1  0  0  0
 11 24  1  0  0  0
 13 26  1  0  0  0
 14 16  1  0  0  0
 14 23  1  0  0  0
 15 17  1  0  0  0
 15 23  1  0  0  0
 16 25  1  0  0  0
 17 25  1  0  0  0
 18 22  1  0  0  0
 19 22  1  0  0  0
 20 25  1  0  0  0
 21  9  1  0  0  0
 21 22  1  0  0  0
 30 12  1  0  0  0
 30 24  1  0  0  0
  1  5  2  0  0  0
  2  9  2  0  0  0
  3  4  2  0  0  0
  6 12  2  0  0  0
  7 11  2  0  0  0
  8 10  2  0  0  0
 13 27  2  0  0  0
 30 28  2  0  0  0
 30 29  2  0  0  0
M  CHG  2  25   1  26  -1
M  END
> <rmsd>
0.526365697

$$$$
ZINC64580564


 30 32  0  0  0  0  0  0  0  0999 V2000
   -2.9401   -2.1985   -1.8863 C   0  0  0  0  0
    1.0098    2.8742   -2.2076 C   0  0  0  0  0
   -0.0468    2.7606   -1.3042 C   0  0  0  0  0
   -2.9034   -0.8263   -1.6389 C   0  0  0  0  0
    0.9942    0.8091   -0.3321 C   0  0  0  0  0
   -2.7216   -2.6311    0.4806 C   0  0  0  0  0
    2.0508    0.9227   -1.2357 C   0  0  0  0  0
   -2.8492   -3.1009   -0.8266 C   0  0  0  0  0
   -2.6848   -1.2588    0.7280 C   0  0  0  0  0
    2.0586    1.9552   -2.1734 C   0  0  0  0  0
   -0.0546    1.7281   -0.3664 C   0  0  0  0  0
   -2.7758   -0.3564   -0.3318 C   0  0  0  0  0
    3.1473   -0.0623   -1.1780 C   0  0  0  0  0
    4.2587    2.9104   -2.6919 C   0  0  0  0  0
    2.8289    2.0249   -4.5269 C   0  0  0  0  0
    5.5039    2.5045   -3.4686 C   0  0  0  0  0
    4.0779    1.6255   -5.3021 C   0  0  0  0  0
   -2.8882   -4.5683   -1.0918 C   0  0  0  0  0
   -2.5472   -0.7885    2.1391 C   0  0  0  0  0
    8.5169    3.3533   -6.6858 C   0  0  0  0  0
    7.2831    3.5538   -5.8208 C   0  0  0  0  0
    6.4341    2.2936   -5.7731 C   0  0  0  0  0
    3.1093    2.0866   -3.0888 N   0  0  0  0  0
   -1.1364    1.6121    0.5582 N   0  0  0  0  0
    5.2076    2.5574   -4.9459 N   0  0  0  0  0
    3.0518   -1.1333   -1.8841 O   0  0  0  0  0
    4.1594    0.1852   -0.4235 O   0  0  0  0  0
   -3.6861    1.6731    1.0017 O   0  0  0  0  0
   -2.8652    2.0472   -1.3405 O   0  0  0  0  0
   -2.7315    1.3910   -0.0541 S   0  0  0  0  0
  1  8  1  0  0  0
  2 10  1  0  0  0
  3 11  1  0  0  0
  4 12  1  0  0  0
  5  7  1  0  0  0
  6  9  1  0  0  0
  7 13  1  0  0  0
 10 23  1  0  0  0
 11 24  1  0  0  0
 13 26  1  0  0  0
 14 16  1  0  0  0
 14 23  1  0  0  0
 15 17  1  0  0  0
 15 23  1  0  0  0
 16 25  1  0  0  0
 17 25  1  0  0  0
 18  8  1  0  0  0
 19  9  1  0  0  0
 20 21  1  0  0  0
 21 22  1  0  0  0
 22 25  1  0  0  0
 30 12  1  0  0  0
 30 24  1  0  0  0
  1  4  2  0  0  0
  2  3  2  0  0  0
  5 11  2  0  0  0
  6  8  2  0  0  0
  7 10  2  0  0  0
  9 12  2  0  0  0
 13 27  2  0  0  0
 30 28  2  0  0  0
 30 29  2  0  0  0
M  CHG  2  25   1  26  -1
M  END
> <rmsd>
0.709902823

$$$$
ZINC64580564


 30 32  0  0  0  0  0  0  0  0999 V2000
   -3.4260   -2.2286   -1.8041 C   0  0  0  0  0
    0.8582    2.5120   -2.5852 C   0  0  0  0  0
   -0.1150    2.4929   -1.5862 C   0  0  0  0  0
   -3.2600   -0.8607   -1.5874 C   0  0  0  0  0
    0.8577    0.4769   -0.6771 C   0  0  0  0  0
   -3.0215   -2.6491    0.5404 C   0  0  0  0  0
    1.8309    0.4959   -1.6763 C   0  0  0  0  0
   -3.3068   -3.1228   -0.7401 C   0  0  0  0  0
   -2.8554   -1.2811    0.7571 C   0  0  0  0  0
    1.8311    1.5134   -2.6303 C   0  0  0  0  0
   -0.1153    1.4754   -0.6321 C   0  0  0  0  0
   -2.9747   -0.3870   -0.3069 C   0  0  0  0  0
    2.8482   -0.5719   -1.7012 C   0  0  0  0  0
    4.0405    2.2856   -3.3677 C   0  0  0  0  0
    2.3812    1.4942   -5.0457 C   0  0  0  0  0
    5.1725    1.7734   -4.2480 C   0  0  0  0  0
    3.5176    0.9882   -5.9250 C   0  0  0  0  0
   -3.4841   -4.5855   -0.9725 C   0  0  0  0  0
   -2.5506   -0.8065    2.1402 C   0  0  0  0  0
    7.9285    2.3433   -7.7450 C   0  0  0  0  0
    6.8002    2.6509   -6.7738 C   0  0  0  0  0
    5.8641    1.4623   -6.6240 C   0  0  0  0  0
    2.7987    1.5505   -3.6411 N   0  0  0  0  0
   -1.1116    1.4563    0.3903 N   0  0  0  0  0
    4.7444    1.8320   -5.6924 N   0  0  0  0  0
    2.6044   -1.6402   -2.3748 O   0  0  0  0  0
    3.9425   -0.3962   -1.0481 O   0  0  0  0  0
   -3.5963    1.7238    1.0658 O   0  0  0  0  0
   -2.9714    2.0041   -1.3488 O   0  0  0  0  0
   -2.7693    1.3547   -0.0680 S   0  0  0  0  0
  1  8  1  0  0  0
  2 10  1  0  0  0
  3 11  1  0  0  0
  4 12  1  0  0  0
  5  7  1  0  0  0
  6  9  1  0  0  0
  7 13  1  0  0  0
 10 23  1  0  0  0
 11 24  1  0  0  0
 13 26  1  0  0  0
 14 16  1  0  0  0
 14 23  1  0  0  0
 15 17  1  0  0  0
 15 23  1  0  0  0
 16 25  1  0  0  0
 17 25  1  0  0  0
 18  8  1  0  0  0
 19  9  1  0  0  0
 20 21  1  0  0  0
 21 22  1  0  0  0
 22 25  1  0  0  0
 30 12  1  0  0  0
 30 24  1  0  0  0
  1  4  2  0  0  0
  2  3  2  0  0  0
  5 11  2  0  0  0
  6  8  2  0  0  0
  7 10  2  0  0  0
  9 12  2  0  0  0
 13 27  2  0  0  0
 30 28  2  0  0  0
 30 29  2  0  0  0
M  CHG  2  25   1  26  -1
M  END
> <rmsd>
0.528329611

$$$$
ZINC64580575


 30 32  0  0  0  0  0  0  0  0999 V2000
    1.0210    2.8841   -2.1897 C   0  0  0  0  0
   -0.0385    2.7670   -1.2901 C   0  0  0  0  0
    0.9951    0.8066   -0.3281 C   0  0  0  0  0
   -2.6215   -2.6130    0.4845 C   0  0  0  0  0
   -3.0421   -2.2135   -1.8607 C   0  0  0  0  0
    2.0545    0.9236   -1.2278 C   0  0  0  0  0
   -2.8499   -3.1011   -0.8020 C   0  0  0  0  0
   -2.5855   -1.2374    0.7124 C   0  0  0  0  0
   -3.0060   -0.8378   -1.6329 C   0  0  0  0  0
    2.0675    1.9623   -2.1586 C   0  0  0  0  0
   -0.0515    1.7283   -0.3592 C   0  0  0  0  0
   -2.7777   -0.3498   -0.3463 C   0  0  0  0  0
    3.1484   -0.0644   -1.1736 C   0  0  0  0  0
    4.2713    2.9156   -2.6645 C   0  0  0  0  0
    2.8447    2.0458   -4.5094 C   0  0  0  0  0
    5.5178    2.5119   -3.4403 C   0  0  0  0  0
    4.0950    1.6485   -5.2837 C   0  0  0  0  0
   -2.8875   -4.5722   -1.0459 C   0  0  0  0  0
   -2.3372   -0.7519    2.1038 C   0  0  0  0  0
   -3.2157    0.0826   -2.7912 C   0  0  0  0  0
    6.1085    2.4555   -7.2097 C   0  0  0  0  0
    6.4541    2.3140   -5.7435 C   0  0  0  0  0
    3.1211    2.0972   -3.0701 N   0  0  0  0  0
   -1.1361    1.6088    0.5614 N   0  0  0  0  0
    5.2259    2.5753   -4.9180 N   0  0  0  0  0
    3.0524   -1.1304   -1.8870 O   0  0  0  0  0
    4.1590    0.1756   -0.4146 O   0  0  0  0  0
   -3.6869    1.6730    0.9981 O   0  0  0  0  0
   -2.8585    2.0607   -1.3392 O   0  0  0  0  0
   -2.7300    1.3957   -0.0569 S   0  0  0  0  0
  1 10  1  0  0  0
  2 11  1  0  0  0
  3  6  1  0  0  0
  4  7  1  0  0  0
  5  9  1  0  0  0
  6 13  1  0  0  0
  8 12  1  0  0  0
 10 23  1  0  0  0
 11 24  1  0  0  0
 13 26  1  0  0  0
 14 16  1  0  0  0
 14 23  1  0  0  0
 15 17  1  0  0  0
 15 23  1  0  0  0
 16 25  1  0  0  0
 17 25  1  0  0  0
 18  7  1  0  0  0
 19  8  1  0  0  0
 20  9  1  0  0  0
 21 22  1  0  0  0
 22 25  1  0  0  0
 30 12  1  0  0  0
 30 24  1  0  0  0
  1  2  2  0  0  0
  3 11  2  0  0  0
  4  8  2  0  0  0
  5  7  2  0  0  0
  6 10  2  0  0  0
  9 12  2  0  0  0
 13 27  2  0  0  0
 30 28  2  0  0  0
 30 29  2  0  0  0
M  CHG  2  25   1  26  -1
M  END
> <rmsd>
0.707481384

$$$$
ZINC64580575


 30 32  0  0  0  0  0  0  0  0999 V2000
    0.8688    2.5248   -2.5705 C   0  0  0  0  0
   -0.1072    2.5014   -1.5742 C   0  0  0  0  0
    0.8583    0.4770   -0.6761 C   0  0  0  0  0
   -2.9185   -2.6389    0.5328 C   0  0  0  0  0
   -3.5259   -2.2343   -1.7702 C   0  0  0  0  0
    1.8341    0.5003   -1.6725 C   0  0  0  0  0
   -3.3039   -3.1221   -0.7175 C   0  0  0  0  0
   -2.7552   -1.2679    0.7307 C   0  0  0  0  0
   -3.3626   -0.8631   -1.5723 C   0  0  0  0  0
    1.8394    1.5243   -2.6197 C   0  0  0  0  0
   -0.1125    1.4776   -0.6269 C   0  0  0  0  0
   -2.9773   -0.3800   -0.3219 C   0  0  0  0  0
    2.8489   -0.5698   -1.7018 C   0  0  0  0  0
    4.0527    2.2959   -3.3460 C   0  0  0  0  0
    2.3959    1.5199   -5.0336 C   0  0  0  0  0
    5.1857    1.7869   -4.2266 C   0  0  0  0  0
    3.5334    1.0170   -5.9133 C   0  0  0  0  0
   -3.4775   -4.5884   -0.9295 C   0  0  0  0  0
   -2.3404   -0.7876    2.0837 C   0  0  0  0  0
   -3.6089    0.0578   -2.7231 C   0  0  0  0  0
    5.4128    1.6417   -8.0329 C   0  0  0  0  0
    5.8829    1.4901   -6.6028 C   0  0  0  0  0
    2.8097    1.5657   -3.6275 N   0  0  0  0  0
   -1.1116    1.4540    0.3926 N   0  0  0  0  0
    4.7617    1.8563   -5.6717 N   0  0  0  0  0
    2.6043   -1.6330   -2.3833 O   0  0  0  0  0
    3.9419   -0.4012   -1.0447 O   0  0  0  0  0
   -3.5974    1.7230    1.0633 O   0  0  0  0  0
   -2.9653    2.0181   -1.3477 O   0  0  0  0  0
   -2.7682    1.3595   -0.0707 S   0  0  0  0  0
  1 10  1  0  0  0
  2 11  1  0  0  0
  3  6  1  0  0  0
  4  7  1  0  0  0
  5  9  1  0  0  0
  6 13  1  0  0  0
  8 12  1  0  0  0
 10 23  1  0  0  0
 11 24  1  0  0  0
 13 26  1  0  0  0
 14 16  1  0  0  0
 14 23  1  0  0  0
 15 17  1  0  0  0
 15 23  1  0  0  0
 16 25  1  0  0  0
 17 25  1  0  0  0
 18  7  1  0  0  0
 19  8  1  0  0  0
 20  9  1  0  0  0
 21 22  1  0  0  0
 22 25  1  0  0  0
 30 12  1  0  0  0
 30 24  1  0  0  0
  1  2  2  0  0  0
  3 11  2  0  0  0
  4  8  2  0  0  0
  5  7  2  0  0  0
  6 10  2  0  0  0
  9 12  2  0  0  0
 13 27  2  0  0  0
 30 28  2  0  0  0
 30 29  2  0  0  0
M  CHG  2  25   1  26  -1
M  END
> <rmsd>
0.526595294

$$$$
ZINC64580573


 30 32  0  0  0  0  0  0  0  0999 V2000
    1.0211    2.8836   -2.1904 C   0  0  0  0  0
   -0.0383    2.7665   -1.2907 C   0  0  0  0  0
    0.9955    0.8064   -0.3284 C   0  0  0  0  0
   -2.8523   -3.1015   -0.8023 C   0  0  0  0  0
   -3.2076   -1.2131    0.6619 C   0  0  0  0  0
   -2.3842   -0.8634   -1.5823 C   0  0  0  0  0
    2.0549    0.9234   -1.2282 C   0  0  0  0  0
   -3.2451   -2.5886    0.4339 C   0  0  0  0  0
   -2.4218   -2.2389   -1.8105 C   0  0  0  0  0
    2.0677    1.9620   -2.1592 C   0  0  0  0  0
   -0.0512    1.7280   -0.3596 C   0  0  0  0  0
   -2.7771   -0.3504   -0.3461 C   0  0  0  0  0
    3.1489   -0.0645   -1.1739 C   0  0  0  0  0
    4.2714    2.9154   -2.6654 C   0  0  0  0  0
    2.8447    2.0451   -4.5100 C   0  0  0  0  0
    5.5178    2.5117   -3.4412 C   0  0  0  0  0
    4.0950    1.6478   -5.2844 C   0  0  0  0  0
   -3.7052   -3.5109    1.5117 C   0  0  0  0  0
   -2.0016   -2.7876   -3.1320 C   0  0  0  0  0
    8.5418    3.3743   -6.6444 C   0  0  0  0  0
    7.3061    3.5721   -5.7815 C   0  0  0  0  0
    6.4540    2.3135   -5.7445 C   0  0  0  0  0
    3.1212    2.0968   -3.0708 N   0  0  0  0  0
   -1.1357    1.6086    0.5611 N   0  0  0  0  0
    5.2258    2.5748   -4.9190 N   0  0  0  0  0
    3.0530   -1.1306   -1.8872 O   0  0  0  0  0
    4.1594    0.1758   -0.4150 O   0  0  0  0  0
   -3.6865    1.6726    0.9980 O   0  0  0  0  0
   -2.8583    2.0600   -1.3395 O   0  0  0  0  0
   -2.7296    1.3951   -0.0570 S   0  0  0  0  0
  1 10  1  0  0  0
  2 11  1  0  0  0
  3  7  1  0  0  0
  4  8  1  0  0  0
  5 12  1  0  0  0
  6  9  1  0  0  0
  7 13  1  0  0  0
 10 23  1  0  0  0
 11 24  1  0  0  0
 13 26  1  0  0  0
 14 16  1  0  0  0
 14 23  1  0  0  0
 15 17  1  0  0  0
 15 23  1  0  0  0
 16 25  1  0  0  0
 17 25  1  0  0  0
 18  8  1  0  0  0
 19  9  1  0  0  0
 20 21  1  0  0  0
 21 22  1  0  0  0
 22 25  1  0  0  0
 30 12  1  0  0  0
 30 24  1  0  0  0
  1  2  2  0  0  0
  3 11  2  0  0  0
  4  9  2  0  0  0
  5  8  2  0  0  0
  6 12  2  0  0  0
  7 10  2  0  0  0
 13 27  2  0  0  0
 30 28  2  0  0  0
 30 29  2  0  0  0
M  CHG  2  25   1  26  -1
M  END
> <rmsd>
0.706889987

$$$$
ZINC64580573


 30 32  0  0  0  0  0  0  0  0999 V2000
    0.8688    2.5243   -2.5710 C   0  0  0  0  0
   -0.1070    2.5009   -1.5747 C   0  0  0  0  0
    0.8586    0.4767   -0.6764 C   0  0  0  0  0
   -3.3064   -3.1223   -0.7176 C   0  0  0  0  0
   -3.3756   -1.1954    0.7378 C   0  0  0  0  0
   -2.7426   -0.9368   -1.5794 C   0  0  0  0  0
    1.8345    0.5000   -1.6728 C   0  0  0  0  0
   -3.5404   -2.5662    0.5399 C   0  0  0  0  0
   -2.9074   -2.3076   -1.7774 C   0  0  0  0  0
    1.8396    1.5238   -2.6202 C   0  0  0  0  0
   -0.1122    1.4772   -0.6273 C   0  0  0  0  0
   -2.9768   -0.3806   -0.3218 C   0  0  0  0  0
    2.8493   -0.5700   -1.7021 C   0  0  0  0  0
    4.0527    2.2956   -3.3467 C   0  0  0  0  0
    2.3960    1.5191   -5.0341 C   0  0  0  0  0
    5.1858    1.7865   -4.2274 C   0  0  0  0  0
    3.5334    1.0162   -5.9138 C   0  0  0  0  0
   -3.9666   -3.4373    1.6729 C   0  0  0  0  0
   -2.6571   -2.9025   -3.1218 C   0  0  0  0  0
    7.9522    2.3729   -7.7133 C   0  0  0  0  0
    6.8222    2.6768   -6.7431 C   0  0  0  0  0
    5.8829    1.4894   -6.6036 C   0  0  0  0  0
    2.8098    1.5652   -3.6281 N   0  0  0  0  0
   -1.1112    1.4537    0.3923 N   0  0  0  0  0
    4.7616    1.8556   -5.6724 N   0  0  0  0  0
    2.6048   -1.6333   -2.3833 O   0  0  0  0  0
    3.9423   -0.4012   -1.0450 O   0  0  0  0  0
   -3.5970    1.7226    1.0631 O   0  0  0  0  0
   -2.9651    2.0173   -1.3480 O   0  0  0  0  0
   -2.7679    1.3590   -0.0709 S   0  0  0  0  0
  1 10  1  0  0  0
  2 11  1  0  0  0
  3  7  1  0  0  0
  4  8  1  0  0  0
  5 12  1  0  0  0
  6  9  1  0  0  0
  7 13  1  0  0  0
 10 23  1  0  0  0
 11 24  1  0  0  0
 13 26  1  0  0  0
 14 16  1  0  0  0
 14 23  1  0  0  0
 15 17  1  0  0  0
 15 23  1  0  0  0
 16 25  1  0  0  0
 17 25  1  0  0  0
 18  8  1  0  0  0
 19  9  1  0  0  0
 20 21  1  0  0  0
 21 22  1  0  0  0
 22 25  1  0  0  0
 30 12  1  0  0  0
 30 24  1  0  0  0
  1  2  2  0  0  0
  3 11  2  0  0  0
  4  9  2  0  0  0
  5  8  2  0  0  0
  6 12  2  0  0  0
  7 10  2  0  0  0
 13 27  2  0  0  0
 30 28  2  0  0  0
 30 29  2  0  0  0
M  CHG  2  25   1  26  -1
M  END
> <rmsd>
0.526051223

$$$$
ZINC33253593


 30 31  0  0  0  0  0  0  0  0999 V2000
   -0.0379    2.7666   -1.2905 C   0  0  0  0  0
    1.0214    2.8832   -2.1905 C   0  0  0  0  0
    0.9955    0.8062   -0.3282 C   0  0  0  0  0
   -2.8517   -3.1017   -0.8018 C   0  0  0  0  0
   -3.2071   -1.2130    0.6623 C   0  0  0  0  0
   -2.3836   -0.8635   -1.5820 C   0  0  0  0  0
    2.0547    0.9227   -1.2284 C   0  0  0  0  0
   -3.2446   -2.5887    0.4343 C   0  0  0  0  0
   -2.4210   -2.2392   -1.8099 C   0  0  0  0  0
   -0.0507    1.7281   -0.3593 C   0  0  0  0  0
    2.0676    1.9612   -2.1595 C   0  0  0  0  0
   -2.7766   -0.3505   -0.3459 C   0  0  0  0  0
    3.1490   -0.0648   -1.1740 C   0  0  0  0  0
   -3.7047   -3.5108    1.5122 C   0  0  0  0  0
   -2.0007   -2.7879   -3.1314 C   0  0  0  0  0
    5.9855    2.1138   -2.1876 C   0  0  0  0  0
    5.7942    4.6069   -1.9186 C   0  0  0  0  0
    1.9220    2.0118   -5.8037 C   0  0  0  0  0
    2.6127   -0.4040   -5.9104 C   0  0  0  0  0
    3.9302    3.3242   -3.0724 C   0  0  0  0  0
    3.4525    1.0568   -4.0099 C   0  0  0  0  0
    5.0241    3.2881   -1.9983 C   0  0  0  0  0
    2.3051    0.7762   -4.9878 C   0  0  0  0  0
   -1.1355    1.6087    0.5613 N   0  0  0  0  0
    3.1083    2.0932   -3.0611 N   0  0  0  0  0
    3.0533   -1.1311   -1.8872 O   0  0  0  0  0
    4.1594    0.1755   -0.4150 O   0  0  0  0  0
   -3.6863    1.6726    0.9979 O   0  0  0  0  0
   -2.8579    2.0598   -1.3395 O   0  0  0  0  0
   -2.7293    1.3951   -0.0568 S   0  0  0  0  0
  1 10  1  0  0  0
  2 11  1  0  0  0
  3  7  1  0  0  0
  4  9  1  0  0  0
  5  8  1  0  0  0
  6 12  1  0  0  0
  7 13  1  0  0  0
 10 24  1  0  0  0
 11 25  1  0  0  0
 13 26  1  0  0  0
 14  8  1  0  0  0
 15  9  1  0  0  0
 16 22  1  0  0  0
 17 22  1  0  0  0
 18 23  1  0  0  0
 19 23  1  0  0  0
 20 22  1  0  0  0
 20 25  1  0  0  0
 21 23  1  0  0  0
 21 25  1  0  0  0
 30 12  1  0  0  0
 30 24  1  0  0  0
  1  2  2  0  0  0
  3 10  2  0  0  0
  4  8  2  0  0  0
  5 12  2  0  0  0
  6  9  2  0  0  0
  7 11  2  0  0  0
 13 27  2  0  0  0
 30 28  2  0  0  0
 30 29  2  0  0  0
M  CHG  1  26  -1
M  END
> <rmsd>
0.707142651

$$$$
ZINC33253593


 30 31  0  0  0  0  0  0  0  0999 V2000
   -0.1065    2.5007   -1.5746 C   0  0  0  0  0
    0.8692    2.5236   -2.5712 C   0  0  0  0  0
    0.8587    0.4763   -0.6762 C   0  0  0  0  0
   -3.3059   -3.1226   -0.7171 C   0  0  0  0  0
   -3.3753   -1.1954    0.7382 C   0  0  0  0  0
   -2.7422   -0.9371   -1.5790 C   0  0  0  0  0
    1.8342    0.4991   -1.6729 C   0  0  0  0  0
   -3.5400   -2.5663    0.5404 C   0  0  0  0  0
   -2.9068   -2.3080   -1.7768 C   0  0  0  0  0
   -0.1117    1.4771   -0.6270 C   0  0  0  0  0
    1.8395    1.5227   -2.6203 C   0  0  0  0  0
   -2.9763   -0.3808   -0.3215 C   0  0  0  0  0
    2.8493   -0.5707   -1.7020 C   0  0  0  0  0
   -3.9664   -3.4372    1.6734 C   0  0  0  0  0
   -2.6563   -2.9030   -3.1212 C   0  0  0  0  0
    5.7374    1.3669   -3.0153 C   0  0  0  0  0
    5.7651    3.8702   -2.7763 C   0  0  0  0  0
    1.3558    1.5432   -6.2355 C   0  0  0  0  0
    1.8451   -0.9205   -6.3609 C   0  0  0  0  0
    3.7074    2.7248   -3.7277 C   0  0  0  0  0
    2.9702    0.4914   -4.5743 C   0  0  0  0  0
    4.8915    2.6151   -2.7594 C   0  0  0  0  0
    1.7176    0.2906   -5.4359 C   0  0  0  0  0
   -1.1110    1.4537    0.3925 N   0  0  0  0  0
    2.7977    1.5624   -3.6171 N   0  0  0  0  0
    2.6050   -1.6342   -2.3832 O   0  0  0  0  0
    3.9422   -0.4018   -1.0449 O   0  0  0  0  0
   -3.5968    1.7226    1.0631 O   0  0  0  0  0
   -2.9647    2.0170   -1.3481 O   0  0  0  0  0
   -2.7675    1.3588   -0.0708 S   0  0  0  0  0
  1 10  1  0  0  0
  2 11  1  0  0  0
  3  7  1  0  0  0
  4  9  1  0  0  0
  5  8  1  0  0  0
  6 12  1  0  0  0
  7 13  1  0  0  0
 10 24  1  0  0  0
 11 25  1  0  0  0
 13 26  1  0  0  0
 14  8  1  0  0  0
 15  9  1  0  0  0
 16 22  1  0  0  0
 17 22  1  0  0  0
 18 23  1  0  0  0
 19 23  1  0  0  0
 20 22  1  0  0  0
 20 25  1  0  0  0
 21 23  1  0  0  0
 21 25  1  0  0  0
 30 12  1  0  0  0
 30 24  1  0  0  0
  1  2  2  0  0  0
  3 10  2  0  0  0
  4  8  2  0  0  0
  5 12  2  0  0  0
  6  9  2  0  0  0
  7 11  2  0  0  0
 13 27  2  0  0  0
 30 28  2  0  0  0
 30 29  2  0  0  0
M  CHG  1  26  -1
M  END
> <rmsd>
0.526211321

$$$$
ZINC33253583


 30 31  0  0  0  0  0  0  0  0999 V2000
   -2.9398   -2.1992   -1.8863 C   0  0  0  0  0
   -0.0468    2.7601   -1.3038 C   0  0  0  0  0
    1.0096    2.8734   -2.2075 C   0  0  0  0  0
   -2.9033   -0.8269   -1.6389 C   0  0  0  0  0
    0.9937    0.8083   -0.3319 C   0  0  0  0  0
   -2.7216   -2.6317    0.4806 C   0  0  0  0  0
    2.0501    0.9215   -1.2356 C   0  0  0  0  0
   -2.8491   -3.1016   -0.8265 C   0  0  0  0  0
   -2.6849   -1.2595    0.7280 C   0  0  0  0  0
   -0.0548    1.7275   -0.3659 C   0  0  0  0  0
    2.0581    1.9540   -2.1734 C   0  0  0  0  0
   -2.7757   -0.3571   -0.3317 C   0  0  0  0  0
    3.1468   -0.0632   -1.1779 C   0  0  0  0  0
   -2.8879   -4.5690   -1.0917 C   0  0  0  0  0
   -2.5475   -0.7892    2.1391 C   0  0  0  0  0
    5.9756    2.1155   -2.2132 C   0  0  0  0  0
    5.7792    4.6098   -1.9597 C   0  0  0  0  0
    1.9024    1.9810   -5.8174 C   0  0  0  0  0
    2.5984   -0.4339   -5.9107 C   0  0  0  0  0
    3.9150    3.3155   -3.1001 C   0  0  0  0  0
    3.4401    1.0410   -4.0218 C   0  0  0  0  0
    5.0119    3.2887   -2.0288 C   0  0  0  0  0
    2.2906    0.7515   -4.9947 C   0  0  0  0  0
   -1.1368    1.6116    0.5584 N   0  0  0  0  0
    3.0960    2.0827   -3.0787 N   0  0  0  0  0
    3.0517   -1.1342   -1.8841 O   0  0  0  0  0
    4.1588    0.1843   -0.4233 O   0  0  0  0  0
   -3.6864    1.6724    1.0016 O   0  0  0  0  0
   -2.8654    2.0465   -1.3405 O   0  0  0  0  0
   -2.7317    1.3903   -0.0540 S   0  0  0  0  0
  1  8  1  0  0  0
  2 10  1  0  0  0
  3 11  1  0  0  0
  4 12  1  0  0  0
  5  7  1  0  0  0
  6  9  1  0  0  0
  7 13  1  0  0  0
 10 24  1  0  0  0
 11 25  1  0  0  0
 13 26  1  0  0  0
 14  8  1  0  0  0
 15  9  1  0  0  0
 16 22  1  0  0  0
 17 22  1  0  0  0
 18 23  1  0  0  0
 19 23  1  0  0  0
 20 22  1  0  0  0
 20 25  1  0  0  0
 21 23  1  0  0  0
 21 25  1  0  0  0
 30 12  1  0  0  0
 30 24  1  0  0  0
  1  4  2  0  0  0
  2  3  2  0  0  0
  5 10  2  0  0  0
  6  8  2  0  0  0
  7 11  2  0  0  0
  9 12  2  0  0  0
 13 27  2  0  0  0
 30 28  2  0  0  0
 30 29  2  0  0  0
M  CHG  1  26  -1
M  END
> <rmsd>
0.710042953

$$$$
ZINC33253583


 30 31  0  0  0  0  0  0  0  0999 V2000
   -3.4259   -2.2294   -1.8040 C   0  0  0  0  0
   -0.1150    2.4923   -1.5859 C   0  0  0  0  0
    0.8580    2.5109   -2.5851 C   0  0  0  0  0
   -3.2600   -0.8614   -1.5874 C   0  0  0  0  0
    0.8572    0.4760   -0.6768 C   0  0  0  0  0
   -3.0217   -2.6496    0.5406 C   0  0  0  0  0
    1.8301    0.4946   -1.6761 C   0  0  0  0  0
   -3.3068   -3.1235   -0.7400 C   0  0  0  0  0
   -2.8557   -1.2818    0.7572 C   0  0  0  0  0
   -0.1154    1.4748   -0.6317 C   0  0  0  0  0
    1.8306    1.5120   -2.6302 C   0  0  0  0  0
   -2.9748   -0.3877   -0.3068 C   0  0  0  0  0
    2.8477   -0.5730   -1.7009 C   0  0  0  0  0
   -3.4840   -4.5862   -0.9723 C   0  0  0  0  0
   -2.5510   -0.8071    2.1404 C   0  0  0  0  0
    5.7278    1.3627   -3.0342 C   0  0  0  0  0
    5.7502    3.8676   -2.8114 C   0  0  0  0  0
    1.3376    1.5079   -6.2442 C   0  0  0  0  0
    1.8324   -0.9553   -6.3549 C   0  0  0  0  0
    3.6928    2.7113   -3.7501 C   0  0  0  0  0
    2.9587    0.4707   -4.5804 C   0  0  0  0  0
    4.8796    2.6106   -2.7842 C   0  0  0  0  0
    1.7044    0.2615   -5.4374 C   0  0  0  0  0
   -1.1120    1.4557    0.3905 N   0  0  0  0  0
    2.7862    1.5475   -3.6297 N   0  0  0  0  0
    2.6041   -1.6414   -2.3747 O   0  0  0  0  0
    3.9418   -0.3973   -1.0477 O   0  0  0  0  0
   -3.5967    1.7231    1.0657 O   0  0  0  0  0
   -2.9715    2.0033   -1.3488 O   0  0  0  0  0
   -2.7695    1.3540   -0.0678 S   0  0  0  0  0
  1  8  1  0  0  0
  2 10  1  0  0  0
  3 11  1  0  0  0
  4 12  1  0  0  0
  5  7  1  0  0  0
  6  9  1  0  0  0
  7 13  1  0  0  0
 10 24  1  0  0  0
 11 25  1  0  0  0
 13 26  1  0  0  0
 14  8  1  0  0  0
 15  9  1  0  0  0
 16 22  1  0  0  0
 17 22  1  0  0  0
 18 23  1  0  0  0
 19 23  1  0  0  0
 20 22  1  0  0  0
 20 25  1  0  0  0
 21 23  1  0  0  0
 21 25  1  0  0  0
 30 12  1  0  0  0
 30 24  1  0  0  0
  1  4  2  0  0  0
  2  3  2  0  0  0
  5 10  2  0  0  0
  6  8  2  0  0  0
  7 11  2  0  0  0
  9 12  2  0  0  0
 13 27  2  0  0  0
 30 28  2  0  0  0
 30 29  2  0  0  0
M  CHG  1  26  -1
M  END
> <rmsd>
0.528368413

$$$$
ZINC33253586


 30 31  0  0  0  0  0  0  0  0999 V2000
   -3.2440   -2.5883    0.4340 C   0  0  0  0  0
   -2.4200   -2.2382   -1.8100 C   0  0  0  0  0
   -0.0380    2.7671   -1.2905 C   0  0  0  0  0
    1.0212    2.8836   -2.1906 C   0  0  0  0  0
   -3.2072   -1.2128    0.6623 C   0  0  0  0  0
   -2.3832   -0.8626   -1.5818 C   0  0  0  0  0
    0.9954    0.8067   -0.3282 C   0  0  0  0  0
    2.0545    0.9232   -1.2284 C   0  0  0  0  0
   -2.8504   -3.1011   -0.8021 C   0  0  0  0  0
   -0.0509    1.7286   -0.3593 C   0  0  0  0  0
    2.0674    1.9616   -2.1595 C   0  0  0  0  0
   -2.7767   -0.3500   -0.3456 C   0  0  0  0  0
    3.1488   -0.0644   -1.1739 C   0  0  0  0  0
   -1.5760   -5.2563   -0.6699 C   0  0  0  0  0
    5.9853    2.1142   -2.1878 C   0  0  0  0  0
    5.7940    4.6073   -1.9189 C   0  0  0  0  0
    1.9216    2.0119   -5.8037 C   0  0  0  0  0
    2.6124   -0.4039   -5.9104 C   0  0  0  0  0
   -2.8877   -4.5718   -1.0457 C   0  0  0  0  0
    3.9299    3.3246   -3.0726 C   0  0  0  0  0
    3.4523    1.0571   -4.0100 C   0  0  0  0  0
    5.0239    3.2885   -1.9985 C   0  0  0  0  0
    2.3048    0.7764   -4.9878 C   0  0  0  0  0
   -1.1356    1.6093    0.5614 N   0  0  0  0  0
    3.1080    2.0936   -3.0612 N   0  0  0  0  0
    3.0531   -1.1307   -1.8871 O   0  0  0  0  0
    4.1593    0.1760   -0.4151 O   0  0  0  0  0
   -3.6864    1.6732    0.9981 O   0  0  0  0  0
   -2.8581    2.0602   -1.3394 O   0  0  0  0  0
   -2.7294    1.3956   -0.0567 S   0  0  0  0  0
  1  9  1  0  0  0
  2  6  1  0  0  0
  3 10  1  0  0  0
  4 11  1  0  0  0
  5 12  1  0  0  0
  7  8  1  0  0  0
  8 13  1  0  0  0
 10 24  1  0  0  0
 11 25  1  0  0  0
 13 26  1  0  0  0
 14 19  1  0  0  0
 15 22  1  0  0  0
 16 22  1  0  0  0
 17 23  1  0  0  0
 18 23  1  0  0  0
 19  9  1  0  0  0
 20 22  1  0  0  0
 20 25  1  0  0  0
 21 23  1  0  0  0
 21 25  1  0  0  0
 30 12  1  0  0  0
 30 24  1  0  0  0
  1  5  2  0  0  0
  2  9  2  0  0  0
  3  4  2  0  0  0
  6 12  2  0  0  0
  7 10  2  0  0  0
  8 11  2  0  0  0
 13 27  2  0  0  0
 30 28  2  0  0  0
 30 29  2  0  0  0
M  CHG  1  26  -1
M  END
> <rmsd>
0.70745337

$$$$
ZINC33253586


 30 31  0  0  0  0  0  0  0  0999 V2000
   -3.5394   -2.5660    0.5401 C   0  0  0  0  0
   -2.9057   -2.3072   -1.7769 C   0  0  0  0  0
   -0.1066    2.5012   -1.5746 C   0  0  0  0  0
    0.8690    2.5240   -2.5713 C   0  0  0  0  0
   -3.3753   -1.1951    0.7382 C   0  0  0  0  0
   -2.7417   -0.9362   -1.5788 C   0  0  0  0  0
    0.8586    0.4768   -0.6761 C   0  0  0  0  0
    1.8341    0.4995   -1.6728 C   0  0  0  0  0
   -3.3046   -3.1221   -0.7174 C   0  0  0  0  0
   -0.1117    1.4776   -0.6270 C   0  0  0  0  0
    1.8393    1.5231   -2.6204 C   0  0  0  0  0
   -2.9763   -0.3803   -0.3212 C   0  0  0  0  0
    2.8492   -0.5702   -1.7019 C   0  0  0  0  0
   -2.1934   -5.3691   -0.6641 C   0  0  0  0  0
    5.7373    1.3673   -3.0154 C   0  0  0  0  0
    5.7649    3.8706   -2.7766 C   0  0  0  0  0
    1.3556    1.5433   -6.2355 C   0  0  0  0  0
    1.8448   -0.9204   -6.3608 C   0  0  0  0  0
   -3.4779   -4.5880   -0.9290 C   0  0  0  0  0
    3.7072    2.7251   -3.7278 C   0  0  0  0  0
    2.9700    0.4916   -4.5743 C   0  0  0  0  0
    4.8913    2.6155   -2.7596 C   0  0  0  0  0
    1.7174    0.2908   -5.4358 C   0  0  0  0  0
   -1.1110    1.4543    0.3926 N   0  0  0  0  0
    2.7975    1.5627   -3.6171 N   0  0  0  0  0
    2.6049   -1.6338   -2.3831 O   0  0  0  0  0
    3.9421   -0.4013   -1.0448 O   0  0  0  0  0
   -3.5968    1.7232    1.0632 O   0  0  0  0  0
   -2.9648    2.0174   -1.3479 O   0  0  0  0  0
   -2.7676    1.3594   -0.0706 S   0  0  0  0  0
  1  9  1  0  0  0
  2  6  1  0  0  0
  3 10  1  0  0  0
  4 11  1  0  0  0
  5 12  1  0  0  0
  7  8  1  0  0  0
  8 13  1  0  0  0
 10 24  1  0  0  0
 11 25  1  0  0  0
 13 26  1  0  0  0
 14 19  1  0  0  0
 15 22  1  0  0  0
 16 22  1  0  0  0
 17 23  1  0  0  0
 18 23  1  0  0  0
 19  9  1  0  0  0
 20 22  1  0  0  0
 20 25  1  0  0  0
 21 23  1  0  0  0
 21 25  1  0  0  0
 30 12  1  0  0  0
 30 24  1  0  0  0
  1  5  2  0  0  0
  2  9  2  0  0  0
  3  4  2  0  0  0
  6 12  2  0  0  0
  7 10  2  0  0  0
  8 11  2  0  0  0
 13 27  2  0  0  0
 30 28  2  0  0  0
 30 29  2  0  0  0
M  CHG  1  26  -1
M  END
> <rmsd>
0.526347041

$$$$
ZINC33253507


 30 31  0  0  0  0  0  0  0  0999 V2000
   -2.9088   -2.3072   -1.7813 C   0  0  0  0  0
   -3.5417   -2.5664    0.5359 C   0  0  0  0  0
   -0.1344    2.4675   -1.6188 C   0  0  0  0  0
    0.8311    2.4762   -2.6254 C   0  0  0  0  0
   -2.7435   -0.9365   -1.5828 C   0  0  0  0  0
   -3.3764   -1.1957    0.7344 C   0  0  0  0  0
    0.8591    0.4738   -0.6832 C   0  0  0  0  0
    1.8246    0.4825   -1.6899 C   0  0  0  0  0
   -3.3080   -3.1222   -0.7219 C   0  0  0  0  0
   -0.1204    1.4662   -0.6476 C   0  0  0  0  0
    1.8106    1.4838   -2.6610 C   0  0  0  0  0
   -2.9773   -0.3808   -0.3250 C   0  0  0  0  0
    2.8498   -0.5779   -1.7042 C   0  0  0  0  0
    1.1929    0.0424   -6.8438 C   0  0  0  0  0
    4.1606    4.1681   -3.4546 C   0  0  0  0  0
   -2.1588   -5.2572   -1.4053 C   0  0  0  0  0
   -4.5692   -4.8739   -2.0210 C   0  0  0  0  0
   -3.9379   -5.3984    0.3258 C   0  0  0  0  0
    1.6032    0.1480   -5.3818 C   0  0  0  0  0
    4.8094    2.8890   -3.9643 C   0  0  0  0  0
    2.3742    1.4268   -5.0775 C   0  0  0  0  0
    4.1853    1.6336   -3.3670 C   0  0  0  0  0
   -3.4924   -4.6330   -0.9408 C   0  0  0  0  0
   -1.1165    1.4571    0.3896 N   0  0  0  0  0
    2.7788    1.5097   -3.6894 N   0  0  0  0  0
    2.6092   -1.6592   -2.3580 O   0  0  0  0  0
    3.9474   -0.3833   -1.0622 O   0  0  0  0  0
   -3.5920    1.7201    1.0659 O   0  0  0  0  0
   -2.9715    2.0187   -1.3476 O   0  0  0  0  0
   -2.7708    1.3350   -0.0758 S   0  0  0  0  0
  1  9  1  0  0  0
  2  6  1  0  0  0
  3 10  1  0  0  0
  4 11  1  0  0  0
  5 12  1  0  0  0
  7  8  1  0  0  0
  8 13  1  0  0  0
 10 24  1  0  0  0
 11 25  1  0  0  0
 13 26  1  0  0  0
 14 19  1  0  0  0
 15 20  1  0  0  0
 16 23  1  0  0  0
 17 23  1  0  0  0
 18 23  1  0  0  0
 19 21  1  0  0  0
 20 22  1  0  0  0
 21 25  1  0  0  0
 22 25  1  0  0  0
 23  9  1  0  0  0
 30 12  1  0  0  0
 30 24  1  0  0  0
  1  5  2  0  0  0
  2  9  2  0  0  0
  3  4  2  0  0  0
  6 12  2  0  0  0
  7 10  2  0  0  0
  8 11  2  0  0  0
 13 27  2  0  0  0
 30 28  2  0  0  0
 30 29  2  0  0  0
M  CHG  1  26  -1
M  END
> <rmsd>
0.527241945

$$$$
ZINC33253507


 30 31  0  0  0  0  0  0  0  0999 V2000
   -2.4216   -2.2338   -1.8207 C   0  0  0  0  0
   -3.2380   -2.5896    0.4253 C   0  0  0  0  0
   -0.0674    2.7412   -1.3420 C   0  0  0  0  0
    0.9810    2.8469   -2.2558 C   0  0  0  0  0
   -2.3860   -0.8586   -1.5898 C   0  0  0  0  0
   -3.2024   -1.2144    0.6561 C   0  0  0  0  0
    0.9952    0.8137   -0.3458 C   0  0  0  0  0
    2.0438    0.9193   -1.2597 C   0  0  0  0  0
   -2.8477   -3.0993   -0.8131 C   0  0  0  0  0
   -0.0603    1.7245   -0.3869 C   0  0  0  0  0
    2.0367    1.9361   -2.2147 C   0  0  0  0  0
   -2.7763   -0.3489   -0.3515 C   0  0  0  0  0
    3.1482   -0.0561   -1.1941 C   0  0  0  0  0
    1.9169    0.5361   -6.4551 C   0  0  0  0  0
    4.2244    4.8136   -2.7544 C   0  0  0  0  0
   -1.4731   -5.1222   -1.4165 C   0  0  0  0  0
   -3.8412   -4.9183   -2.2452 C   0  0  0  0  0
   -3.3838   -5.4391    0.1425 C   0  0  0  0  0
    2.1838    0.6439   -4.9605 C   0  0  0  0  0
    5.0176    3.6005   -3.2195 C   0  0  0  0  0
    2.8186    1.9733   -4.5700 C   0  0  0  0  0
    4.4455    2.2877   -2.6984 C   0  0  0  0  0
   -2.8892   -4.6151   -1.0679 C   0  0  0  0  0
   -1.1419    1.6154    0.5546 N   0  0  0  0  0
    3.0884    2.0595   -3.1498 N   0  0  0  0  0
    3.0556   -1.1395   -1.8814 O   0  0  0  0  0
    4.1642    0.2116   -0.4518 O   0  0  0  0  0
   -3.6814    1.6678    1.0049 O   0  0  0  0  0
   -2.8719    2.0639   -1.3376 O   0  0  0  0  0
   -2.7323    1.3723   -0.0619 S   0  0  0  0  0
  1  9  1  0  0  0
  2  6  1  0  0  0
  3 10  1  0  0  0
  4 11  1  0  0  0
  5 12  1  0  0  0
  7  8  1  0  0  0
  8 13  1  0  0  0
 10 24  1  0  0  0
 11 25  1  0  0  0
 13 26  1  0  0  0
 14 19  1  0  0  0
 15 20  1  0  0  0
 16 23  1  0  0  0
 17 23  1  0  0  0
 18 23  1  0  0  0
 19 21  1  0  0  0
 20 22  1  0  0  0
 21 25  1  0  0  0
 22 25  1  0  0  0
 23  9  1  0  0  0
 30 12  1  0  0  0
 30 24  1  0  0  0
  1  5  2  0  0  0
  2  9  2  0  0  0
  3  4  2  0  0  0
  6 12  2  0  0  0
  7 10  2  0  0  0
  8 11  2  0  0  0
 13 27  2  0  0  0
 30 28  2  0  0  0
 30 29  2  0  0  0
M  CHG  1  26  -1
M  END
> <rmsd>
0.711179674

$$$$
ZINC08740134


 30 33  0  0  0  0  0  0  0  0999 V2000
   -4.5070   -2.8789   -0.5868 C   0  0  0  0  0
   -5.1429   -1.6894   -0.9423 C   0  0  0  0  0
   -3.3888   -2.8500    0.2465 C   0  0  0  0  0
   -4.6605   -0.4710   -0.4645 C   0  0  0  0  0
   -2.9064   -1.6316    0.7244 C   0  0  0  0  0
   -3.5423   -0.4420    0.3689 C   0  0  0  0  0
    0.6566    1.0743   -1.8035 C   0  0  0  0  0
   -3.8154    2.7678    3.3655 C   0  0  0  0  0
    3.8312   -0.5963   -1.9417 C   0  0  0  0  0
   -1.9828    1.4838   -0.0520 C   0  0  0  0  0
   -2.5215    4.6851    2.8942 C   0  0  0  0  0
   -2.9442    4.0491    1.5744 C   0  0  0  0  0
    0.4836    1.6355   -0.3788 C   0  0  0  0  0
    2.3506   -0.7740   -1.7919 C   0  0  0  0  0
    1.8333    0.9655   -0.0723 C   0  0  0  0  0
    1.9043   -1.6851   -0.6264 C   0  0  0  0  0
    2.8783   -2.8290   -0.3256 C   0  0  0  0  0
    0.5118   -2.2770   -0.9027 C   0  0  0  0  0
   -3.0196    0.8780    0.8863 C   0  0  0  0  0
   -3.1754    3.8963    3.9126 N   0  0  0  0  0
    1.8733    0.5526   -1.4759 N   0  0  0  0  0
   -3.6283    2.8519    1.9813 N   0  0  0  0  0
   -0.6988    1.1484    0.3251 N   0  0  0  0  0
   -4.0732    1.8470    1.0629 N   0  0  0  0  0
    4.4420   -0.2540   -0.8916 O   0  0  0  0  0
   -0.0333    0.9923   -2.7943 O   0  0  0  0  0
   -4.4111    1.9028    3.9932 O   0  0  0  0  0
    4.2758   -0.8133   -3.1038 O   0  0  0  0  0
   -2.2831    2.2110   -0.9968 O   0  0  0  0  0
    1.7565   -0.5995    0.8783 S   0  0  0  0  0
  1  2  1  0  0  0
  3  5  1  0  0  0
  4  6  1  0  0  0
  7 21  1  0  0  0
  8 20  1  0  0  0
  8 22  1  0  0  0
  9 25  1  0  0  0
 10 23  1  0  0  0
 11 12  1  0  0  0
 11 20  1  0  0  0
 12 22  1  0  0  0
 13  7  1  0  0  0
 13 15  1  0  0  0
 13 23  1  0  0  0
 14  9  1  0  0  0
 14 16  1  0  0  0
 14 21  1  0  0  0
 15 21  1  0  0  0
 15 30  1  0  0  0
 16 17  1  0  0  0
 16 18  1  0  0  0
 16 30  1  0  0  0
 19  6  1  0  0  0
 19 10  1  0  0  0
 19 24  1  0  0  0
 22 24  1  0  0  0
  1  3  2  0  0  0
  2  4  2  0  0  0
  5  6  2  0  0  0
  7 26  2  0  0  0
  8 27  2  0  0  0
  9 28  2  0  0  0
 10 29  2  0  0  0
M  CHG  1  25  -1
M  END
> <rmsd>
0.412613988

$$$$
ZINC43736212


 30 33  0  0  0  0  0  0  0  0999 V2000
   -4.1231   -3.0537   -0.3501 C   0  0  0  0  0
   -4.6740   -1.9467   -0.9954 C   0  0  0  0  0
   -3.2129   -2.8726    0.6913 C   0  0  0  0  0
   -4.3148   -0.6583   -0.5993 C   0  0  0  0  0
   -2.8537   -1.5842    1.0874 C   0  0  0  0  0
   -3.4047   -0.4771    0.4421 C   0  0  0  0  0
    1.1558    0.8620   -0.9527 C   0  0  0  0  0
   -4.3429    3.0939    2.8347 C   0  0  0  0  0
    3.7485   -0.4590   -1.9966 C   0  0  0  0  0
   -1.8034    1.4303    0.1018 C   0  0  0  0  0
   -2.9898    4.9765    2.3900 C   0  0  0  0  0
   -3.1116    4.1541    1.1116 C   0  0  0  0  0
    0.6746    1.6268    0.2929 C   0  0  0  0  0
    3.5369    0.0880   -0.5998 C   0  0  0  0  0
    1.8725    0.9847    1.0092 C   0  0  0  0  0
    4.2361    1.4185   -0.2584 C   0  0  0  0  0
    4.1371    2.4811   -1.3614 C   0  0  0  0  0
    5.7045    1.1963    0.1169 C   0  0  0  0  0
   -3.0154    0.9185    0.8709 C   0  0  0  0  0
   -3.8444    4.3082    3.3440 N   0  0  0  0  0
    2.1427    0.2524   -0.2317 N   0  0  0  0  0
   -3.8600    2.9982    1.5248 N   0  0  0  0  0
   -0.6306    1.1952    0.7885 N   0  0  0  0  0
   -4.0883    1.8636    0.6812 N   0  0  0  0  0
    4.8640   -0.1847   -2.5197 O   0  0  0  0  0
    0.8748    0.8655   -2.1298 O   0  0  0  0  0
   -5.0552    2.3000    3.4341 O   0  0  0  0  0
    2.7775   -1.1213   -2.4587 O   0  0  0  0  0
   -1.8958    2.0125   -0.9772 O   0  0  0  0  0
    3.3353    2.0734    1.2380 S   0  0  0  0  0
  1  2  1  0  0  0
  3  5  1  0  0  0
  4  6  1  0  0  0
  7 21  1  0  0  0
  8 20  1  0  0  0
  8 22  1  0  0  0
  9 25  1  0  0  0
 10 23  1  0  0  0
 11 12  1  0  0  0
 11 20  1  0  0  0
 12 22  1  0  0  0
 13  7  1  0  0  0
 13 15  1  0  0  0
 13 23  1  0  0  0
 14  9  1  0  0  0
 14 16  1  0  0  0
 14 21  1  0  0  0
 15 21  1  0  0  0
 15 30  1  0  0  0
 16 17  1  0  0  0
 16 18  1  0  0  0
 16 30  1  0  0  0
 19  6  1  0  0  0
 19 10  1  0  0  0
 19 24  1  0  0  0
 22 24  1  0  0  0
  1  3  2  0  0  0
  2  4  2  0  0  0
  5  6  2  0  0  0
  7 26  2  0  0  0
  8 27  2  0  0  0
  9 28  2  0  0  0
 10 29  2  0  0  0
M  CHG  1  25  -1
M  END
> <rmsd>
0.413235575

$$$$
ZINC08740134


 30 33  0  0  0  0  0  0  0  0999 V2000
   -4.5072   -2.8783   -0.5871 C   0  0  0  0  0
   -5.1429   -1.6888   -0.9425 C   0  0  0  0  0
   -3.3890   -2.8496    0.2463 C   0  0  0  0  0
   -4.6605   -0.4704   -0.4646 C   0  0  0  0  0
   -2.9065   -1.6311    0.7243 C   0  0  0  0  0
   -3.5423   -0.4416    0.3688 C   0  0  0  0  0
    0.6566    1.0748   -1.8034 C   0  0  0  0  0
   -3.5839    4.2876    0.9117 C   0  0  0  0  0
    3.8312   -0.5960   -1.9417 C   0  0  0  0  0
   -1.9828    1.4843   -0.0519 C   0  0  0  0  0
   -2.5677    4.6297    3.0148 C   0  0  0  0  0
   -2.8004    3.1346    2.8262 C   0  0  0  0  0
    0.4837    1.6359   -0.3786 C   0  0  0  0  0
    2.3506   -0.7736   -1.7919 C   0  0  0  0  0
    1.8333    0.9658   -0.0721 C   0  0  0  0  0
    1.9042   -1.6847   -0.6264 C   0  0  0  0  0
    2.8782   -2.8287   -0.3257 C   0  0  0  0  0
    0.5117   -2.2765   -0.9029 C   0  0  0  0  0
   -3.0196    0.8784    0.8864 C   0  0  0  0  0
   -2.9838    5.2300    1.7684 N   0  0  0  0  0
    1.8733    0.5531   -1.4758 N   0  0  0  0  0
   -3.5065    3.0585    1.5762 N   0  0  0  0  0
   -0.6988    1.1488    0.3252 N   0  0  0  0  0
   -4.0732    1.8475    1.0630 N   0  0  0  0  0
    4.4420   -0.2537   -0.8915 O   0  0  0  0  0
   -0.0332    0.9928   -2.7942 O   0  0  0  0  0
   -4.0665    4.5191   -0.1886 O   0  0  0  0  0
    4.2758   -0.8128   -3.1038 O   0  0  0  0  0
   -2.2830    2.2115   -0.9967 O   0  0  0  0  0
    1.7565   -0.5992    0.8784 S   0  0  0  0  0
  1  2  1  0  0  0
  3  5  1  0  0  0
  4  6  1  0  0  0
  7 21  1  0  0  0
  8 20  1  0  0  0
  8 22  1  0  0  0
  9 25  1  0  0  0
 10 23  1  0  0  0
 11 12  1  0  0  0
 11 20  1  0  0  0
 12 22  1  0  0  0
 13  7  1  0  0  0
 13 15  1  0  0  0
 13 23  1  0  0  0
 14  9  1  0  0  0
 14 16  1  0  0  0
 14 21  1  0  0  0
 15 21  1  0  0  0
 15 30  1  0  0  0
 16 17  1  0  0  0
 16 18  1  0  0  0
 16 30  1  0  0  0
 19  6  1  0  0  0
 19 10  1  0  0  0
 19 24  1  0  0  0
 22 24  1  0  0  0
  1  3  2  0  0  0
  2  4  2  0  0  0
  5  6  2  0  0  0
  7 26  2  0  0  0
  8 27  2  0  0  0
  9 28  2  0  0  0
 10 29  2  0  0  0
M  CHG  1  25  -1
M  END
> <rmsd>
0.412599117

$$$$
ZINC43736212


 30 33  0  0  0  0  0  0  0  0999 V2000
   -4.1232   -3.0544   -0.3498 C   0  0  0  0  0
   -4.6741   -1.9473   -0.9951 C   0  0  0  0  0
   -3.2130   -2.8732    0.6916 C   0  0  0  0  0
   -4.3150   -0.6590   -0.5990 C   0  0  0  0  0
   -2.8538   -1.5848    1.0877 C   0  0  0  0  0
   -3.4048   -0.4777    0.4424 C   0  0  0  0  0
    1.1556    0.8615   -0.9523 C   0  0  0  0  0
   -3.5937    4.2768    0.3006 C   0  0  0  0  0
    3.7484   -0.4595   -1.9962 C   0  0  0  0  0
   -1.8036    1.4297    0.1020 C   0  0  0  0  0
   -3.0612    4.9351    2.5042 C   0  0  0  0  0
   -3.2377    3.4207    2.4800 C   0  0  0  0  0
    0.6744    1.6262    0.2932 C   0  0  0  0  0
    3.5367    0.0875   -0.5994 C   0  0  0  0  0
    1.8724    0.9842    1.0095 C   0  0  0  0  0
    4.2359    1.4180   -0.2581 C   0  0  0  0  0
    4.1369    2.4806   -1.3611 C   0  0  0  0  0
    5.7044    1.1958    0.1172 C   0  0  0  0  0
   -3.0156    0.9179    0.8712 C   0  0  0  0  0
   -3.2003    5.3471    1.1265 N   0  0  0  0  0
    2.1425    0.2519   -0.2313 N   0  0  0  0  0
   -3.6547    3.1518    1.1306 N   0  0  0  0  0
   -0.6308    1.1946    0.7888 N   0  0  0  0  0
   -4.0885    1.8630    0.6814 N   0  0  0  0  0
    4.8639   -0.1852   -2.5194 O   0  0  0  0  0
    0.8747    0.8649   -2.1295 O   0  0  0  0  0
   -3.8273    4.3407   -0.8987 O   0  0  0  0  0
    2.7774   -1.1218   -2.4584 O   0  0  0  0  0
   -1.8960    2.0119   -0.9769 O   0  0  0  0  0
    3.3351    2.0729    1.2383 S   0  0  0  0  0
  1  2  1  0  0  0
  3  5  1  0  0  0
  4  6  1  0  0  0
  7 21  1  0  0  0
  8 20  1  0  0  0
  8 22  1  0  0  0
  9 25  1  0  0  0
 10 23  1  0  0  0
 11 12  1  0  0  0
 11 20  1  0  0  0
 12 22  1  0  0  0
 13  7  1  0  0  0
 13 15  1  0  0  0
 13 23  1  0  0  0
 14  9  1  0  0  0
 14 16  1  0  0  0
 14 21  1  0  0  0
 15 21  1  0  0  0
 15 30  1  0  0  0
 16 17  1  0  0  0
 16 18  1  0  0  0
 16 30  1  0  0  0
 19  6  1  0  0  0
 19 10  1  0  0  0
 19 24  1  0  0  0
 22 24  1  0  0  0
  1  3  2  0  0  0
  2  4  2  0  0  0
  5  6  2  0  0  0
  7 26  2  0  0  0
  8 27  2  0  0  0
  9 28  2  0  0  0
 10 29  2  0  0  0
M  CHG  1  25  -1
M  END
> <rmsd>
0.413262308

$$$$
ZINC21533854


 30 32  0  0  0  0  0  0  0  0999 V2000
   -3.2802   -2.5840    0.4534 C   0  0  0  0  0
   -2.4350   -2.2556   -1.7860 C   0  0  0  0  0
   -3.2321   -1.2074    0.6734 C   0  0  0  0  0
   -2.3870   -0.8791   -1.5661 C   0  0  0  0  0
    1.0046    0.7850   -0.3092 C   0  0  0  0  0
    0.0115    2.7194   -1.2729 C   0  0  0  0  0
    2.0569    0.9144   -1.2088 C   0  0  0  0  0
   -0.0416    1.7006   -0.3353 C   0  0  0  0  0
   -2.8816   -3.1081   -0.7762 C   0  0  0  0  0
   -2.7855   -0.3549   -0.3363 C   0  0  0  0  0
    2.0159    1.9683   -2.1075 C   0  0  0  0  0
    3.1640   -0.0568   -1.1793 C   0  0  0  0  0
    2.7773    4.5476   -5.1409 C   0  0  0  0  0
    4.0502    4.8598   -4.3513 C   0  0  0  0  0
    2.8475    3.2806   -5.9960 C   0  0  0  0  0
    4.0383    4.3979   -2.8943 C   0  0  0  0  0
    2.2302    2.0352   -5.3600 C   0  0  0  0  0
    4.2621    2.9000   -2.6993 C   0  0  0  0  0
    3.0926    1.3742   -4.2871 C   0  0  0  0  0
   -2.1167   -6.5990   -0.3111 C   0  0  0  0  0
   -2.7416   -5.2971    0.1428 C   0  0  0  0  0
    1.0168    2.8774   -2.1628 N   0  0  0  0  0
    3.0711    2.1048   -3.0155 N   0  0  0  0  0
   -1.1338    1.5941    0.5736 N   0  0  0  0  0
    3.0770   -1.1163   -1.9052 O   0  0  0  0  0
    4.1807    0.1868   -0.4280 O   0  0  0  0  0
   -3.6902    1.6840    0.9866 O   0  0  0  0  0
   -2.8359    2.0499   -1.3449 O   0  0  0  0  0
   -2.9288   -4.4512   -0.9910 O   0  0  0  0  0
   -2.7255    1.3918   -0.0572 S   0  0  0  0  0
  1  9  1  0  0  0
  2  4  1  0  0  0
  3 10  1  0  0  0
  5  8  1  0  0  0
  6 22  1  0  0  0
  7 11  1  0  0  0
  7 12  1  0  0  0
  8 24  1  0  0  0
  9 29  1  0  0  0
 11 23  1  0  0  0
 12 25  1  0  0  0
 13 14  1  0  0  0
 13 15  1  0  0  0
 14 16  1  0  0  0
 15 17  1  0  0  0
 16 18  1  0  0  0
 17 19  1  0  0  0
 18 23  1  0  0  0
 19 23  1  0  0  0
 20 21  1  0  0  0
 21 29  1  0  0  0
 30 10  1  0  0  0
 30 24  1  0  0  0
  1  3  2  0  0  0
  2  9  2  0  0  0
  4 10  2  0  0  0
  5  7  2  0  0  0
  6  8  2  0  0  0
 11 22  2  0  0  0
 12 26  2  0  0  0
 30 27  2  0  0  0
 30 28  2  0  0  0
M  CHG  1  25  -1
M  END
> <rmsd>
0.68889761

$$$$
ZINC21533854


 30 32  0  0  0  0  0  0  0  0999 V2000
   -3.5709   -2.5594    0.5596 C   0  0  0  0  0
   -2.9180   -2.3219   -1.7544 C   0  0  0  0  0
   -3.3970   -1.1885    0.7494 C   0  0  0  0  0
   -2.7441   -0.9510   -1.5646 C   0  0  0  0  0
    0.8684    0.4570   -0.6593 C   0  0  0  0  0
   -0.0601    2.4525   -1.5608 C   0  0  0  0  0
    1.8380    0.4943   -1.6552 C   0  0  0  0  0
   -0.1024    1.4510   -0.6042 C   0  0  0  0  0
   -3.3313   -3.1261   -0.6922 C   0  0  0  0  0
   -2.9836   -0.3843   -0.3127 C   0  0  0  0  0
    1.7932    1.5385   -2.5649 C   0  0  0  0  0
    2.8652   -0.5598   -1.7116 C   0  0  0  0  0
    2.4605    4.0182   -5.7019 C   0  0  0  0  0
    3.8223    4.2386   -5.0401 C   0  0  0  0  0
    2.3525    2.7405   -6.5370 C   0  0  0  0  0
    3.9126    3.7946   -3.5803 C   0  0  0  0  0
    1.7044    1.5539   -5.8240 C   0  0  0  0  0
    4.0384    2.2860   -3.3801 C   0  0  0  0  0
    2.6109    0.8392   -4.8244 C   0  0  0  0  0
   -2.7956   -6.6609   -0.2379 C   0  0  0  0  0
   -3.2734   -5.3094    0.2489 C   0  0  0  0  0
    0.8659    2.5221   -2.5432 N   0  0  0  0  0
    2.7655    1.5827   -3.5697 N   0  0  0  0  0
   -1.1090    1.4397    0.4042 N   0  0  0  0  0
    2.6293   -1.6170   -2.4071 O   0  0  0  0  0
    3.9639   -0.3882   -1.0628 O   0  0  0  0  0
   -3.6006    1.7330    1.0520 O   0  0  0  0  0
   -2.9444    2.0062   -1.3552 O   0  0  0  0  0
   -3.5013   -4.4637   -0.8775 O   0  0  0  0  0
   -2.7639    1.3553   -0.0718 S   0  0  0  0  0
  1  9  1  0  0  0
  2  4  1  0  0  0
  3 10  1  0  0  0
  5  8  1  0  0  0
  6 22  1  0  0  0
  7 11  1  0  0  0
  7 12  1  0  0  0
  8 24  1  0  0  0
  9 29  1  0  0  0
 11 23  1  0  0  0
 12 25  1  0  0  0
 13 14  1  0  0  0
 13 15  1  0  0  0
 14 16  1  0  0  0
 15 17  1  0  0  0
 16 18  1  0  0  0
 17 19  1  0  0  0
 18 23  1  0  0  0
 19 23  1  0  0  0
 20 21  1  0  0  0
 21 29  1  0  0  0
 30 10  1  0  0  0
 30 24  1  0  0  0
  1  3  2  0  0  0
  2  9  2  0  0  0
  4 10  2  0  0  0
  5  7  2  0  0  0
  6  8  2  0  0  0
 11 22  2  0  0  0
 12 26  2  0  0  0
 30 27  2  0  0  0
 30 28  2  0  0  0
M  CHG  1  25  -1
M  END
> <rmsd>
0.510036707

$$$$
ZINC35397528


 30 31  0  0  0  0  0  0  0  0999 V2000
    0.8681    0.4575   -0.6595 C   0  0  0  0  0
   -3.3301   -3.1264   -0.6929 C   0  0  0  0  0
   -3.3972   -1.1890    0.7488 C   0  0  0  0  0
   -2.7437   -0.9509   -1.5649 C   0  0  0  0  0
   -0.0606    2.4527   -1.5612 C   0  0  0  0  0
    1.8378    0.4949   -1.6554 C   0  0  0  0  0
   -3.5702   -2.5599    0.5588 C   0  0  0  0  0
   -2.9168   -2.3218   -1.7549 C   0  0  0  0  0
   -0.1027    1.4512   -0.6045 C   0  0  0  0  0
   -2.9838   -0.3844   -0.3131 C   0  0  0  0  0
    1.7929    1.5390   -2.5651 C   0  0  0  0  0
    2.8651   -0.5591   -1.7114 C   0  0  0  0  0
   -4.0120   -3.4202    1.6942 C   0  0  0  0  0
   -2.6600   -2.9277   -3.0932 C   0  0  0  0  0
    5.6922    1.3874   -2.9479 C   0  0  0  0  0
    5.7172    3.8900   -2.7004 C   0  0  0  0  0
    1.3209    1.5712   -6.1817 C   0  0  0  0  0
    1.8125   -0.8916   -6.3138 C   0  0  0  0  0
    3.6635    2.7462   -3.6622 C   0  0  0  0  0
    2.9307    0.5150   -4.5189 C   0  0  0  0  0
    4.8445    2.6341   -2.6905 C   0  0  0  0  0
    1.6811    0.3163   -5.3852 C   0  0  0  0  0
    0.8655    2.5224   -2.5436 N   0  0  0  0  0
   -1.1096    1.4400    0.4039 N   0  0  0  0  0
    2.7543    1.5827   -3.5586 N   0  0  0  0  0
    2.6295   -1.6164   -2.4071 O   0  0  0  0  0
    3.9638   -0.3874   -1.0628 O   0  0  0  0  0
   -3.6012    1.7330    1.0514 O   0  0  0  0  0
   -2.9449    2.0061   -1.3558 O   0  0  0  0  0
   -2.7644    1.3553   -0.0723 S   0  0  0  0  0
  1  9  1  0  0  0
  2  8  1  0  0  0
  3  7  1  0  0  0
  4 10  1  0  0  0
  5 23  1  0  0  0
  6 11  1  0  0  0
  6 12  1  0  0  0
  9 24  1  0  0  0
 11 25  1  0  0  0
 12 26  1  0  0  0
 13  7  1  0  0  0
 14  8  1  0  0  0
 15 21  1  0  0  0
 16 21  1  0  0  0
 17 22  1  0  0  0
 18 22  1  0  0  0
 19 21  1  0  0  0
 19 25  1  0  0  0
 20 22  1  0  0  0
 20 25  1  0  0  0
 30 10  1  0  0  0
 30 24  1  0  0  0
  1  6  2  0  0  0
  2  7  2  0  0  0
  3 10  2  0  0  0
  4  8  2  0  0  0
  5  9  2  0  0  0
 11 23  2  0  0  0
 12 27  2  0  0  0
 30 28  2  0  0  0
 30 29  2  0  0  0
M  CHG  1  26  -1
M  END
> <rmsd>
0.510155737

$$$$
ZINC35397528


 30 31  0  0  0  0  0  0  0  0999 V2000
    1.0043    0.7852   -0.3100 C   0  0  0  0  0
   -2.8807   -3.1083   -0.7768 C   0  0  0  0  0
   -3.2323   -1.2079    0.6728 C   0  0  0  0  0
   -2.3869   -0.8790   -1.5664 C   0  0  0  0  0
    0.0109    2.7194   -1.2737 C   0  0  0  0  0
    2.0565    0.9146   -1.2096 C   0  0  0  0  0
   -3.2796   -2.5844    0.4527 C   0  0  0  0  0
   -2.4343   -2.2555   -1.7865 C   0  0  0  0  0
   -0.0419    1.7006   -0.3360 C   0  0  0  0  0
   -2.7858   -0.3551   -0.3368 C   0  0  0  0  0
    2.0154    1.9684   -2.1083 C   0  0  0  0  0
    3.1636   -0.0565   -1.1800 C   0  0  0  0  0
   -3.7567   -3.4962    1.5321 C   0  0  0  0  0
   -2.0076   -2.8159   -3.1011 C   0  0  0  0  0
    5.9332    2.1226   -2.1239 C   0  0  0  0  0
    5.7402    4.6149   -1.8484 C   0  0  0  0  0
    1.8809    2.0293   -5.7527 C   0  0  0  0  0
    2.5729   -0.3859   -5.8643 C   0  0  0  0  0
    3.8802    3.3347   -3.0115 C   0  0  0  0  0
    3.4063    1.0697   -3.9571 C   0  0  0  0  0
    4.9708    3.2959   -1.9341 C   0  0  0  0  0
    2.2620    0.7915   -4.9393 C   0  0  0  0  0
    1.0162    2.8773   -2.1637 N   0  0  0  0  0
   -1.1343    1.5942    0.5730 N   0  0  0  0  0
    3.0587    2.1034   -3.0063 N   0  0  0  0  0
    3.0768   -1.1160   -1.9060 O   0  0  0  0  0
    4.1804    0.1872   -0.4289 O   0  0  0  0  0
   -3.6905    1.6840    0.9860 O   0  0  0  0  0
   -2.8364    2.0497   -1.3456 O   0  0  0  0  0
   -2.7259    1.3917   -0.0578 S   0  0  0  0  0
  1  9  1  0  0  0
  2  8  1  0  0  0
  3  7  1  0  0  0
  4 10  1  0  0  0
  5 23  1  0  0  0
  6 11  1  0  0  0
  6 12  1  0  0  0
  9 24  1  0  0  0
 11 25  1  0  0  0
 12 26  1  0  0  0
 13  7  1  0  0  0
 14  8  1  0  0  0
 15 21  1  0  0  0
 16 21  1  0  0  0
 17 22  1  0  0  0
 18 22  1  0  0  0
 19 21  1  0  0  0
 19 25  1  0  0  0
 20 22  1  0  0  0
 20 25  1  0  0  0
 30 10  1  0  0  0
 30 24  1  0  0  0
  1  6  2  0  0  0
  2  7  2  0  0  0
  3 10  2  0  0  0
  4  8  2  0  0  0
  5  9  2  0  0  0
 11 23  2  0  0  0
 12 27  2  0  0  0
 30 28  2  0  0  0
 30 29  2  0  0  0
M  CHG  1  26  -1
M  END
> <rmsd>
0.689036906

$$$$
ZINC35397518


 30 31  0  0  0  0  0  0  0  0999 V2000
   -2.9516   -2.2115   -1.8673 C   0  0  0  0  0
   -2.9052   -0.8382   -1.6279 C   0  0  0  0  0
    1.0028    0.7874   -0.3134 C   0  0  0  0  0
   -2.7571   -2.6316    0.5039 C   0  0  0  0  0
    0.0025    2.7131   -1.2867 C   0  0  0  0  0
    2.0523    0.9133   -1.2168 C   0  0  0  0  0
   -2.8775   -3.1083   -0.8014 C   0  0  0  0  0
   -2.7107   -1.2583    0.7435 C   0  0  0  0  0
   -0.0455    1.7002   -0.3424 C   0  0  0  0  0
   -2.7848   -0.3615   -0.3224 C   0  0  0  0  0
    2.0063    1.9612   -2.1220 C   0  0  0  0  0
    3.1616   -0.0551   -1.1840 C   0  0  0  0  0
   -2.9267   -4.5768   -1.0582 C   0  0  0  0  0
   -2.5813   -0.7806    2.1529 C   0  0  0  0  0
    5.9238    2.1240   -2.1494 C   0  0  0  0  0
    5.7259    4.6176   -1.8893 C   0  0  0  0  0
    1.8616    1.9986   -5.7664 C   0  0  0  0  0
    2.5587   -0.4158   -5.8644 C   0  0  0  0  0
    3.8656    3.3259   -3.0390 C   0  0  0  0  0
    3.3941    1.0539   -3.9689 C   0  0  0  0  0
    4.9592    3.2964   -1.9645 C   0  0  0  0  0
    2.2477    0.7669   -4.9462 C   0  0  0  0  0
    1.0049    2.8676   -2.1805 N   0  0  0  0  0
   -1.1351    1.5972    0.5703 N   0  0  0  0  0
    3.0468    2.0928   -3.0238 N   0  0  0  0  0
    3.0751   -1.1194   -1.9030 O   0  0  0  0  0
    4.1799    0.1956   -0.4373 O   0  0  0  0  0
   -3.6904    1.6839    0.9899 O   0  0  0  0  0
   -2.8435    2.0367   -1.3464 O   0  0  0  0  0
   -2.7280    1.3871   -0.0548 S   0  0  0  0  0
  1  7  1  0  0  0
  2 10  1  0  0  0
  3  9  1  0  0  0
  4  8  1  0  0  0
  5 23  1  0  0  0
  6 11  1  0  0  0
  6 12  1  0  0  0
  9 24  1  0  0  0
 11 25  1  0  0  0
 12 26  1  0  0  0
 13  7  1  0  0  0
 14  8  1  0  0  0
 15 21  1  0  0  0
 16 21  1  0  0  0
 17 22  1  0  0  0
 18 22  1  0  0  0
 19 21  1  0  0  0
 19 25  1  0  0  0
 20 22  1  0  0  0
 20 25  1  0  0  0
 30 10  1  0  0  0
 30 24  1  0  0  0
  1  2  2  0  0  0
  3  6  2  0  0  0
  4  7  2  0  0  0
  5  9  2  0  0  0
  8 10  2  0  0  0
 11 23  2  0  0  0
 12 27  2  0  0  0
 30 28  2  0  0  0
 30 29  2  0  0  0
M  CHG  1  26  -1
M  END
> <rmsd>
0.692127228

$$$$
ZINC35397518


 30 31  0  0  0  0  0  0  0  0999 V2000
   -3.4347   -2.2396   -1.7866 C   0  0  0  0  0
   -3.2605   -0.8715   -1.5778 C   0  0  0  0  0
    0.8669    0.4571   -0.6601 C   0  0  0  0  0
   -3.0523   -2.6471    0.5639 C   0  0  0  0  0
   -0.0687    2.4444   -1.5722 C   0  0  0  0  0
    1.8339    0.4903   -1.6586 C   0  0  0  0  0
   -3.3306   -3.1274   -0.7157 C   0  0  0  0  0
   -2.8781   -1.2790    0.7728 C   0  0  0  0  0
   -0.1060    1.4490   -0.6090 C   0  0  0  0  0
   -2.9821   -0.3911   -0.2981 C   0  0  0  0  0
    1.7843    1.5283   -2.5750 C   0  0  0  0  0
    2.8635   -0.5617   -1.7105 C   0  0  0  0  0
   -3.5166   -4.5904   -0.9397 C   0  0  0  0  0
   -2.5810   -0.7971    2.1551 C   0  0  0  0  0
    5.6829    1.3831   -2.9670 C   0  0  0  0  0
    5.7029    3.8872   -2.7358 C   0  0  0  0  0
    1.3029    1.5360   -6.1905 C   0  0  0  0  0
    1.7997   -0.9265   -6.3079 C   0  0  0  0  0
    3.6493    2.7326   -3.6848 C   0  0  0  0  0
    2.9194    0.4943   -4.5251 C   0  0  0  0  0
    4.8331    2.6295   -2.7154 C   0  0  0  0  0
    1.6679    0.2871   -5.3868 C   0  0  0  0  0
    0.8547    2.5098   -2.5574 N   0  0  0  0  0
   -1.1102    1.4420    0.4022 N   0  0  0  0  0
    2.7431    1.5678   -3.5712 N   0  0  0  0  0
    2.6285   -1.6240   -2.3987 O   0  0  0  0  0
    3.9634   -0.3834   -1.0658 O   0  0  0  0  0
   -3.6008    1.7336    1.0542 O   0  0  0  0  0
   -2.9514    1.9926   -1.3564 O   0  0  0  0  0
   -2.7660    1.3505   -0.0692 S   0  0  0  0  0
  1  7  1  0  0  0
  2 10  1  0  0  0
  3  9  1  0  0  0
  4  8  1  0  0  0
  5 23  1  0  0  0
  6 11  1  0  0  0
  6 12  1  0  0  0
  9 24  1  0  0  0
 11 25  1  0  0  0
 12 26  1  0  0  0
 13  7  1  0  0  0
 14  8  1  0  0  0
 15 21  1  0  0  0
 16 21  1  0  0  0
 17 22  1  0  0  0
 18 22  1  0  0  0
 19 21  1  0  0  0
 19 25  1  0  0  0
 20 22  1  0  0  0
 20 25  1  0  0  0
 30 10  1  0  0  0
 30 24  1  0  0  0
  1  2  2  0  0  0
  3  6  2  0  0  0
  4  7  2  0  0  0
  5  9  2  0  0  0
  8 10  2  0  0  0
 11 23  2  0  0  0
 12 27  2  0  0  0
 30 28  2  0  0  0
 30 29  2  0  0  0
M  CHG  1  26  -1
M  END
> <rmsd>
0.512445867

$$$$
ZINC35397521


 30 31  0  0  0  0  0  0  0  0999 V2000
   -3.5696   -2.5606    0.5581 C   0  0  0  0  0
   -2.9156   -2.3218   -1.7554 C   0  0  0  0  0
   -3.3969   -1.1896    0.7485 C   0  0  0  0  0
   -2.7430   -0.9508   -1.5651 C   0  0  0  0  0
    0.8683    0.4569   -0.6597 C   0  0  0  0  0
   -0.0603    2.4522   -1.5614 C   0  0  0  0  0
    1.8380    0.4942   -1.6556 C   0  0  0  0  0
   -3.3289   -3.1267   -0.6938 C   0  0  0  0  0
   -0.1024    1.4507   -0.6047 C   0  0  0  0  0
   -2.9836   -0.3847   -0.3131 C   0  0  0  0  0
    1.7932    1.5383   -2.5653 C   0  0  0  0  0
    2.8652   -0.5598   -1.7117 C   0  0  0  0  0
   -2.2347   -5.3813   -0.6167 C   0  0  0  0  0
    5.6924    1.3864   -2.9483 C   0  0  0  0  0
    5.7177    3.8890   -2.7008 C   0  0  0  0  0
    1.3210    1.5705   -6.1819 C   0  0  0  0  0
    1.8124   -0.8923   -6.3140 C   0  0  0  0  0
   -3.5114   -4.5927   -0.8971 C   0  0  0  0  0
    3.6638    2.7454   -3.6626 C   0  0  0  0  0
    2.9308    0.5143   -4.5192 C   0  0  0  0  0
    4.8448    2.6332   -2.6909 C   0  0  0  0  0
    1.6811    0.3156   -5.3854 C   0  0  0  0  0
    0.8658    2.5218   -2.5438 N   0  0  0  0  0
   -1.1092    1.4396    0.4038 N   0  0  0  0  0
    2.7545    1.5819   -3.5589 N   0  0  0  0  0
    2.6295   -1.6171   -2.4074 O   0  0  0  0  0
    3.9639   -0.3882   -1.0631 O   0  0  0  0  0
   -3.6008    1.7327    1.0514 O   0  0  0  0  0
   -2.9446    2.0058   -1.3558 O   0  0  0  0  0
   -2.7640    1.3550   -0.0724 S   0  0  0  0  0
  1  8  1  0  0  0
  2  4  1  0  0  0
  3 10  1  0  0  0
  5  9  1  0  0  0
  6 23  1  0  0  0
  7 11  1  0  0  0
  7 12  1  0  0  0
  9 24  1  0  0  0
 11 25  1  0  0  0
 12 26  1  0  0  0
 13 18  1  0  0  0
 14 21  1  0  0  0
 15 21  1  0  0  0
 16 22  1  0  0  0
 17 22  1  0  0  0
 18  8  1  0  0  0
 19 21  1  0  0  0
 19 25  1  0  0  0
 20 22  1  0  0  0
 20 25  1  0  0  0
 30 10  1  0  0  0
 30 24  1  0  0  0
  1  3  2  0  0  0
  2  8  2  0  0  0
  4 10  2  0  0  0
  5  7  2  0  0  0
  6  9  2  0  0  0
 11 23  2  0  0  0
 12 27  2  0  0  0
 30 28  2  0  0  0
 30 29  2  0  0  0
M  CHG  1  26  -1
M  END
> <rmsd>
0.510475338

$$$$
ZINC35397521


 30 31  0  0  0  0  0  0  0  0999 V2000
   -3.2788   -2.5850    0.4520 C   0  0  0  0  0
   -2.4330   -2.2553   -1.7869 C   0  0  0  0  0
   -3.2319   -1.2085    0.6725 C   0  0  0  0  0
   -2.3862   -0.8788   -1.5666 C   0  0  0  0  0
    1.0046    0.7847   -0.3101 C   0  0  0  0  0
    0.0114    2.7189   -1.2738 C   0  0  0  0  0
    2.0568    0.9140   -1.2098 C   0  0  0  0  0
   -2.8793   -3.1084   -0.7777 C   0  0  0  0  0
   -0.0415    1.7001   -0.3361 C   0  0  0  0  0
   -2.7856   -0.3553   -0.3368 C   0  0  0  0  0
    2.0157    1.9677   -2.1085 C   0  0  0  0  0
    3.1638   -0.0572   -1.1802 C   0  0  0  0  0
   -1.6248   -5.2738   -0.6220 C   0  0  0  0  0
    5.9336    2.1217   -2.1241 C   0  0  0  0  0
    5.7407    4.6140   -1.8486 C   0  0  0  0  0
    1.8811    2.0287   -5.7529 C   0  0  0  0  0
    2.5730   -0.3866   -5.8645 C   0  0  0  0  0
   -2.9273   -4.5802   -1.0129 C   0  0  0  0  0
    3.8806    3.3339   -3.0117 C   0  0  0  0  0
    3.4066    1.0690   -3.9573 C   0  0  0  0  0
    4.9712    3.2951   -1.9344 C   0  0  0  0  0
    2.2621    0.7909   -4.9395 C   0  0  0  0  0
    1.0166    2.8768   -2.1638 N   0  0  0  0  0
   -1.1338    1.5938    0.5729 N   0  0  0  0  0
    3.0590    2.1027   -3.0065 N   0  0  0  0  0
    3.0769   -1.1167   -1.9062 O   0  0  0  0  0
    4.1807    0.1863   -0.4291 O   0  0  0  0  0
   -3.6901    1.6837    0.9860 O   0  0  0  0  0
   -2.8360    2.0494   -1.3456 O   0  0  0  0  0
   -2.7255    1.3914   -0.0579 S   0  0  0  0  0
  1  8  1  0  0  0
  2  4  1  0  0  0
  3 10  1  0  0  0
  5  9  1  0  0  0
  6 23  1  0  0  0
  7 11  1  0  0  0
  7 12  1  0  0  0
  9 24  1  0  0  0
 11 25  1  0  0  0
 12 26  1  0  0  0
 13 18  1  0  0  0
 14 21  1  0  0  0
 15 21  1  0  0  0
 16 22  1  0  0  0
 17 22  1  0  0  0
 18  8  1  0  0  0
 19 21  1  0  0  0
 19 25  1  0  0  0
 20 22  1  0  0  0
 20 25  1  0  0  0
 30 10  1  0  0  0
 30 24  1  0  0  0
  1  3  2  0  0  0
  2  8  2  0  0  0
  4 10  2  0  0  0
  5  7  2  0  0  0
  6  9  2  0  0  0
 11 23  2  0  0  0
 12 27  2  0  0  0
 30 28  2  0  0  0
 30 29  2  0  0  0
M  CHG  1  26  -1
M  END
> <rmsd>
0.689477384

$$$$
ZINC19795769


 28 29  0  0  0  0  0  0  0  0999 V2000
   -4.6177   -1.0756    0.5852 C   0  0  0  0  0
   -3.5500   -0.4650   -0.0387 C   0  0  0  0  0
   -3.4372   -2.4186   -1.0288 C   0  0  0  0  0
    0.9925    0.9421   -1.6306 C   0  0  0  0  0
   -3.1169    0.9308    0.2398 C   0  0  0  0  0
   -1.9338    1.4884   -0.5068 C   0  0  0  0  0
   -3.8043    2.8798    3.5309 C   0  0  0  0  0
    0.5314    1.6958   -0.3716 C   0  0  0  0  0
    1.7795    1.0931    0.3010 C   0  0  0  0  0
    2.9003    2.0156    0.7150 C   0  0  0  0  0
   -5.3316    3.8461    1.6867 C   0  0  0  0  0
   -3.2269    5.0125    2.3924 C   0  0  0  0  0
   -3.9090    3.6611    2.2019 C   0  0  0  0  0
   -2.8716   -1.2337   -0.9643 N   0  0  0  0  0
   -3.7409    1.6593    1.1157 N   0  0  0  0  0
    2.0716    0.4480   -0.9686 N   0  0  0  0  0
   -3.0186   -3.4239   -1.8426 N   0  0  0  0  0
   -0.7438    1.2597    0.1468 N   0  0  0  0  0
   -2.6368    2.7138    3.9838 O   0  0  0  0  0
    4.3972    0.4934   -1.9365 O   0  0  0  0  0
    0.6323    0.7910   -2.7765 O   0  0  0  0  0
   -2.1376    2.0575   -1.5672 O   0  0  0  0  0
   -4.9064    2.4952    4.0196 O   0  0  0  0  0
    2.8400   -1.2811   -2.6332 O   0  0  0  0  0
    3.7862   -1.2950   -0.3613 O   0  0  0  0  0
   -3.1718    2.9352    1.2304 O   0  0  0  0  0
   -4.7896   -2.6769   -0.0046 S   0  0  0  0  0
    3.3588   -0.4697   -1.5113 S   0  0  0  0  0
  1 27  1  0  0  0
  2  5  1  0  0  0
  2 14  1  0  0  0
  3 17  1  0  0  0
  3 27  1  0  0  0
  4 16  1  0  0  0
  5  6  1  0  0  0
  6 18  1  0  0  0
  7 19  1  0  0  0
  8  4  1  0  0  0
  8  9  1  0  0  0
  8 18  1  0  0  0
  9 10  1  0  0  0
  9 16  1  0  0  0
 11 13  1  0  0  0
 12 13  1  0  0  0
 13  7  1  0  0  0
 13 26  1  0  0  0
 15 26  1  0  0  0
 28 16  1  0  0  0
 28 20  1  0  0  0
  1  2  2  0  0  0
  3 14  2  0  0  0
  4 21  2  0  0  0
  5 15  2  0  0  0
  6 22  2  0  0  0
  7 23  2  0  0  0
 28 24  2  0  0  0
 28 25  2  0  0  0
M  CHG  2  19  -1  20  -1
M  END
> <rmsd>
0.346586943

$$$$
ZINC19795769


 28 29  0  0  0  0  0  0  0  0999 V2000
   -2.9093   -1.2859   -0.9846 C   0  0  0  0  0
   -3.5354   -0.4670   -0.0682 C   0  0  0  0  0
   -4.8031   -2.2426    0.1560 C   0  0  0  0  0
    1.0123    0.9604   -1.6269 C   0  0  0  0  0
   -3.1051    0.9264    0.2257 C   0  0  0  0  0
   -1.9194    1.4925   -0.5105 C   0  0  0  0  0
   -3.8087    2.8428    3.5325 C   0  0  0  0  0
    0.5450    1.7013   -0.3627 C   0  0  0  0  0
    1.7909    1.0935    0.3093 C   0  0  0  0  0
    2.9089    2.0132    0.7370 C   0  0  0  0  0
   -5.3292    3.8251    1.6913 C   0  0  0  0  0
   -3.2288    4.9870    2.4171 C   0  0  0  0  0
   -3.9086    3.6368    2.2107 C   0  0  0  0  0
   -4.6217   -1.0138    0.5866 N   0  0  0  0  0
   -3.7336    1.6457    1.1060 N   0  0  0  0  0
    2.0891    0.4610   -0.9651 N   0  0  0  0  0
   -5.7895   -3.0697    0.5931 N   0  0  0  0  0
   -0.7319    1.2589    0.1460 N   0  0  0  0  0
   -2.6429    2.6737    3.9888 O   0  0  0  0  0
    4.4187    0.5183   -1.9226 O   0  0  0  0  0
    0.6571    0.8199   -2.7758 O   0  0  0  0  0
   -2.1193    2.0716   -1.5662 O   0  0  0  0  0
   -4.9124    2.4522    4.0128 O   0  0  0  0  0
    2.8665   -1.2510   -2.6432 O   0  0  0  0  0
    3.8031   -1.2858   -0.3674 O   0  0  0  0  0
   -3.1664    2.9211    1.2354 O   0  0  0  0  0
   -3.7036   -2.8051   -1.0354 S   0  0  0  0  0
    3.3796   -0.4499   -1.5112 S   0  0  0  0  0
  1 27  1  0  0  0
  2  5  1  0  0  0
  2 14  1  0  0  0
  3 17  1  0  0  0
  3 27  1  0  0  0
  4 16  1  0  0  0
  5  6  1  0  0  0
  6 18  1  0  0  0
  7 19  1  0  0  0
  8  4  1  0  0  0
  8  9  1  0  0  0
  8 18  1  0  0  0
  9 10  1  0  0  0
  9 16  1  0  0  0
 11 13  1  0  0  0
 12 13  1  0  0  0
 13  7  1  0  0  0
 13 26  1  0  0  0
 15 26  1  0  0  0
 28 16  1  0  0  0
 28 20  1  0  0  0
  1  2  2  0  0  0
  3 14  2  0  0  0
  4 21  2  0  0  0
  5 15  2  0  0  0
  6 22  2  0  0  0
  7 23  2  0  0  0
 28 24  2  0  0  0
 28 25  2  0  0  0
M  CHG  2  19  -1  20  -1
M  END
> <rmsd>
0.359887034

$$$$
ZINC14033530


 32 34  0  0  0  0  0  0  0  0999 V2000
   -2.4098   -2.9158   -0.2330 C   0  0  0  0  0
   -1.7826    4.9100   -1.7474 C   0  0  0  0  0
   -2.3432   -2.0672   -1.3379 C   0  0  0  0  0
   -3.5696   -2.9642    0.5404 C   0  0  0  0  0
   -0.4582    4.4949   -1.6099 C   0  0  0  0  0
    2.3324   -4.7824   -0.4057 C   0  0  0  0  0
    1.3432   -4.6464    0.5683 C   0  0  0  0  0
   -2.8156    4.1304   -1.2268 C   0  0  0  0  0
   -3.4364   -1.2668   -1.6695 C   0  0  0  0  0
   -4.6629   -2.1638    0.2089 C   0  0  0  0  0
   -0.1665    3.2999   -0.9519 C   0  0  0  0  0
    3.0864   -3.6746   -0.7933 C   0  0  0  0  0
    1.1078   -3.4029    1.1545 C   0  0  0  0  0
   -2.5240    2.9355   -0.5689 C   0  0  0  0  0
   -4.5963   -1.3151   -0.8961 C   0  0  0  0  0
   -1.1995    2.5203   -0.4314 C   0  0  0  0  0
    2.8512   -2.4311   -0.2069 C   0  0  0  0  0
    1.8619   -2.2951    0.7669 C   0  0  0  0  0
   -3.6266    2.1447   -0.0365 C   0  0  0  0  0
    0.3840    0.7719    0.4494 C   0  0  0  0  0
   -0.3320   -0.3800    2.5756 C   0  0  0  0  0
   -5.7788   -0.4490   -1.2547 C   0  0  0  0  0
   -5.7422    0.9189   -0.5777 C   0  0  0  0  0
    0.3033   -0.5528    1.2038 C   0  0  0  0  0
   -0.8798    1.3109    0.2307 N   0  0  0  0  0
   -4.5807    1.6926   -0.9533 N   0  0  0  0  0
    3.6296   -1.3127   -0.6137 N   0  0  0  0  0
    3.2241   -0.6069   -1.5675 O   0  0  0  0  0
   -3.7036    1.9145    1.1817 O   0  0  0  0  0
    1.4648    1.2525    0.1206 O   0  0  0  0  0
    4.6982   -1.0651   -0.0066 O   0  0  0  0  0
    1.6105   -1.0825    1.3569 O   0  0  0  0  0
  1  3  1  0  0  0
  2  5  1  0  0  0
  4 10  1  0  0  0
  6  7  1  0  0  0
  8 14  1  0  0  0
  9 15  1  0  0  0
 11 16  1  0  0  0
 12 17  1  0  0  0
 13 18  1  0  0  0
 14 19  1  0  0  0
 16 25  1  0  0  0
 17 27  1  0  0  0
 18 32  1  0  0  0
 19 26  1  0  0  0
 20 25  1  0  0  0
 21 24  1  0  0  0
 22 15  1  0  0  0
 22 23  1  0  0  0
 23 26  1  0  0  0
 24 20  1  0  0  0
 24 32  1  0  0  0
 27 28  1  0  0  0
  1  4  2  0  0  0
  2  8  2  0  0  0
  3  9  2  0  0  0
  5 11  2  0  0  0
  6 12  2  0  0  0
  7 13  2  0  0  0
 10 15  2  0  0  0
 14 16  2  0  0  0
 17 18  2  0  0  0
 19 29  2  0  0  0
 20 30  2  0  0  0
 27 31  2  0  0  0
M  CHG  2  27   1  28  -1
M  END
> <rmsd>
0.540937543

$$$$
ZINC09356463


 30 32  0  0  0  0  0  0  0  0999 V2000
    0.7123    2.4547   -2.7194 C   0  0  0  0  0
   -0.1849    2.4602   -1.6515 C   0  0  0  0  0
    1.5537    1.3601   -2.9179 C   0  0  0  0  0
   -3.2295   -2.2927   -1.7466 C   0  0  0  0  0
   -3.0021   -0.9295   -1.5585 C   0  0  0  0  0
   -3.5069   -1.1695    0.7919 C   0  0  0  0  0
   -3.7343   -2.5328    0.6039 C   0  0  0  0  0
    0.6007    0.2764   -0.9803 C   0  0  0  0  0
   -0.2407    1.3710   -0.7819 C   0  0  0  0  0
    1.4979    0.2709   -2.0483 C   0  0  0  0  0
   -3.5957   -3.0945   -0.6654 C   0  0  0  0  0
   -3.1407   -0.3679   -0.2893 C   0  0  0  0  0
   -4.1193   -3.3588    1.7551 C   0  0  0  0  0
   -1.1253   -5.9580    3.1537 C   0  0  0  0  0
   -2.6002   -6.1492    3.5081 C   0  0  0  0  0
   -0.9643   -5.0345    1.9460 C   0  0  0  0  0
   -3.3010   -4.8053    3.6884 C   0  0  0  0  0
   -1.7052   -3.7156    2.1525 C   0  0  0  0  0
    0.5362   -0.8906   -0.0432 C   0  0  0  0  0
   -3.6483   -4.9102   -2.2004 C   0  0  0  0  0
   -3.1046   -3.9595    2.5035 N   0  0  0  0  0
   -1.1737    1.3983    0.3123 N   0  0  0  0  0
    2.3668   -0.8331   -2.2715 N   0  0  0  0  0
    3.4971   -0.8332   -1.7295 O   0  0  0  0  0
   -5.3254   -3.4502    1.9787 O   0  0  0  0  0
    1.9760   -1.7730   -3.0030 O   0  0  0  0  0
   -3.5934    1.7531    1.1328 O   0  0  0  0  0
   -3.1054    2.0306   -1.3134 O   0  0  0  0  0
   -3.8135   -4.4241   -0.8701 O   0  0  0  0  0
   -2.8560    1.3384   -0.0549 S   0  0  0  0  0
  1  2  1  0  0  0
  3 10  1  0  0  0
  4 11  1  0  0  0
  5 12  1  0  0  0
  6  7  1  0  0  0
  7 13  1  0  0  0
  8  9  1  0  0  0
  9 22  1  0  0  0
 10 23  1  0  0  0
 11 29  1  0  0  0
 13 21  1  0  0  0
 14 15  1  0  0  0
 14 16  1  0  0  0
 15 17  1  0  0  0
 16 18  1  0  0  0
 17 21  1  0  0  0
 18 21  1  0  0  0
 19  8  1  0  0  0
 20 29  1  0  0  0
 23 24  1  0  0  0
 30 12  1  0  0  0
 30 22  1  0  0  0
  1  3  2  0  0  0
  2  9  2  0  0  0
  4  5  2  0  0  0
  6 12  2  0  0  0
  7 11  2  0  0  0
  8 10  2  0  0  0
 13 25  2  0  0  0
 23 26  2  0  0  0
 30 27  2  0  0  0
 30 28  2  0  0  0
M  CHG  2  23   1  24  -1
M  END
> <rmsd>
0.395726383

$$$$
ZINC09356463


 30 32  0  0  0  0  0  0  0  0999 V2000
    0.7132    2.4557   -2.7181 C   0  0  0  0  0
   -0.1843    2.4609   -1.6504 C   0  0  0  0  0
    1.5546    1.3611   -2.9168 C   0  0  0  0  0
   -3.7347   -2.5317    0.6046 C   0  0  0  0  0
   -3.5070   -1.1684    0.7917 C   0  0  0  0  0
   -3.0020   -0.9301   -1.5588 C   0  0  0  0  0
   -3.2298   -2.2934   -1.7460 C   0  0  0  0  0
    0.6010    0.2767   -0.9798 C   0  0  0  0  0
   -0.2403    1.3713   -0.7812 C   0  0  0  0  0
    1.4985    0.2716   -2.0476 C   0  0  0  0  0
   -3.5961   -3.0943   -0.6644 C   0  0  0  0  0
   -3.1407   -0.3676   -0.2899 C   0  0  0  0  0
   -3.0781   -2.8656   -3.0897 C   0  0  0  0  0
   -6.6800   -3.9097   -4.9902 C   0  0  0  0  0
   -5.3290   -4.4611   -5.4466 C   0  0  0  0  0
   -6.5911   -3.3349   -3.5764 C   0  0  0  0  0
   -4.2290   -3.4135   -5.2976 C   0  0  0  0  0
   -5.4600   -2.3160   -3.4610 C   0  0  0  0  0
    0.5363   -0.8906   -0.0432 C   0  0  0  0  0
   -4.1931   -5.1679    0.3354 C   0  0  0  0  0
   -4.1973   -2.8922   -3.9246 N   0  0  0  0  0
   -1.1735    1.3982    0.3128 N   0  0  0  0  0
    2.3674   -0.8324   -2.2710 N   0  0  0  0  0
    3.4976   -0.8328   -1.7288 O   0  0  0  0  0
   -1.9555   -3.2748   -3.3819 O   0  0  0  0  0
    1.9767   -1.7720   -3.0031 O   0  0  0  0  0
   -3.5934    1.7529    1.1329 O   0  0  0  0  0
   -3.1048    2.0314   -1.3132 O   0  0  0  0  0
   -3.8230   -4.4282   -0.8262 O   0  0  0  0  0
   -2.8557    1.3386   -0.0548 S   0  0  0  0  0
  1  2  1  0  0  0
  3 10  1  0  0  0
  4 11  1  0  0  0
  5 12  1  0  0  0
  6  7  1  0  0  0
  7 13  1  0  0  0
  8  9  1  0  0  0
  9 22  1  0  0  0
 10 23  1  0  0  0
 11 29  1  0  0  0
 13 21  1  0  0  0
 14 15  1  0  0  0
 14 16  1  0  0  0
 15 17  1  0  0  0
 16 18  1  0  0  0
 17 21  1  0  0  0
 18 21  1  0  0  0
 19  8  1  0  0  0
 20 29  1  0  0  0
 23 24  1  0  0  0
 30 12  1  0  0  0
 30 22  1  0  0  0
  1  3  2  0  0  0
  2  9  2  0  0  0
  4  5  2  0  0  0
  6 12  2  0  0  0
  7 11  2  0  0  0
  8 10  2  0  0  0
 13 25  2  0  0  0
 23 26  2  0  0  0
 30 27  2  0  0  0
 30 28  2  0  0  0
M  CHG  2  23   1  24  -1
M  END
> <rmsd>
0.395403862

$$$$
ZINC64580560


 30 32  0  0  0  0  0  0  0  0999 V2000
    0.8685    2.5246   -2.5714 C   0  0  0  0  0
   -0.1074    2.5012   -1.5751 C   0  0  0  0  0
   -2.9067   -2.3073   -1.7775 C   0  0  0  0  0
   -3.5393   -2.5660    0.5398 C   0  0  0  0  0
   -2.7429   -0.9363   -1.5796 C   0  0  0  0  0
   -3.3754   -1.1951    0.7377 C   0  0  0  0  0
    0.8583    0.4770   -0.6767 C   0  0  0  0  0
    1.8341    0.5003   -1.6732 C   0  0  0  0  0
    1.8392    1.5241   -2.6205 C   0  0  0  0  0
   -0.1125    1.4775   -0.6277 C   0  0  0  0  0
   -3.3051   -3.1221   -0.7177 C   0  0  0  0  0
   -2.9772   -0.3802   -0.3221 C   0  0  0  0  0
    2.8489   -0.5697   -1.7024 C   0  0  0  0  0
    4.0523    2.2958   -3.3471 C   0  0  0  0  0
    2.3956    1.5193   -5.0345 C   0  0  0  0  0
    5.1854    1.7867   -4.2278 C   0  0  0  0  0
    3.5330    1.0164   -5.9142 C   0  0  0  0  0
    7.9519    2.3730   -7.7137 C   0  0  0  0  0
   -3.2080   -4.9622   -2.2214 C   0  0  0  0  0
    6.8218    2.6769   -6.7436 C   0  0  0  0  0
    5.8825    1.4895   -6.6040 C   0  0  0  0  0
    2.8095    1.5654   -3.6285 N   0  0  0  0  0
   -1.1116    1.4541    0.3920 N   0  0  0  0  0
    4.7612    1.8558   -5.6729 N   0  0  0  0  0
    2.6044   -1.6331   -2.3837 O   0  0  0  0  0
    3.9419   -0.4010   -1.0454 O   0  0  0  0  0
   -3.5973    1.7230    1.0628 O   0  0  0  0  0
   -2.9654    2.0177   -1.3483 O   0  0  0  0  0
   -3.4647   -4.4599   -0.9106 O   0  0  0  0  0
   -2.7683    1.3594   -0.0713 S   0  0  0  0  0
  1  9  1  0  0  0
  2 10  1  0  0  0
  3 11  1  0  0  0
  4  6  1  0  0  0
  5 12  1  0  0  0
  7  8  1  0  0  0
  8 13  1  0  0  0
  9 22  1  0  0  0
 10 23  1  0  0  0
 11 29  1  0  0  0
 13 25  1  0  0  0
 14 16  1  0  0  0
 14 22  1  0  0  0
 15 17  1  0  0  0
 15 22  1  0  0  0
 16 24  1  0  0  0
 17 24  1  0  0  0
 18 20  1  0  0  0
 19 29  1  0  0  0
 20 21  1  0  0  0
 21 24  1  0  0  0
 30 12  1  0  0  0
 30 23  1  0  0  0
  1  2  2  0  0  0
  3  5  2  0  0  0
  4 11  2  0  0  0
  6 12  2  0  0  0
  7 10  2  0  0  0
  8  9  2  0  0  0
 13 26  2  0  0  0
 30 27  2  0  0  0
 30 28  2  0  0  0
M  CHG  2  24   1  25  -1
M  END
> <rmsd>
0.526278079

$$$$
ZINC64580560


 30 32  0  0  0  0  0  0  0  0999 V2000
    1.0208    2.8838   -2.1908 C   0  0  0  0  0
   -0.0386    2.7668   -1.2911 C   0  0  0  0  0
   -2.4211   -2.2385   -1.8106 C   0  0  0  0  0
   -3.2441   -2.5883    0.4339 C   0  0  0  0  0
   -2.3844   -0.8629   -1.5826 C   0  0  0  0  0
   -3.2074   -1.2127    0.6618 C   0  0  0  0  0
    0.9951    0.8067   -0.3288 C   0  0  0  0  0
    2.0545    0.9236   -1.2286 C   0  0  0  0  0
    2.0673    1.9622   -2.1596 C   0  0  0  0  0
   -0.0515    1.7283   -0.3600 C   0  0  0  0  0
   -2.8511   -3.1012   -0.8023 C   0  0  0  0  0
   -2.7775   -0.3500   -0.3465 C   0  0  0  0  0
    3.1485   -0.0643   -1.1743 C   0  0  0  0  0
    4.2710    2.9156   -2.6658 C   0  0  0  0  0
    2.8444    2.0453   -4.5104 C   0  0  0  0  0
    5.5175    2.5118   -3.4417 C   0  0  0  0  0
    4.0946    1.6480   -5.2848 C   0  0  0  0  0
    8.5415    3.3744   -6.6449 C   0  0  0  0  0
   -2.4706   -4.9000   -2.3108 C   0  0  0  0  0
    7.3058    3.5722   -5.7820 C   0  0  0  0  0
    6.4536    2.3136   -5.7449 C   0  0  0  0  0
    3.1209    2.0970   -3.0712 N   0  0  0  0  0
   -1.1361    1.6089    0.5607 N   0  0  0  0  0
    5.2254    2.5749   -4.9194 N   0  0  0  0  0
    3.0525   -1.1304   -1.8876 O   0  0  0  0  0
    4.1591    0.1759   -0.4154 O   0  0  0  0  0
   -3.6868    1.6730    0.9976 O   0  0  0  0  0
   -2.8586    2.0604   -1.3399 O   0  0  0  0  0
   -2.8866   -4.4435   -1.0245 O   0  0  0  0  0
   -2.7300    1.3955   -0.0574 S   0  0  0  0  0
  1  9  1  0  0  0
  2 10  1  0  0  0
  3 11  1  0  0  0
  4  6  1  0  0  0
  5 12  1  0  0  0
  7  8  1  0  0  0
  8 13  1  0  0  0
  9 22  1  0  0  0
 10 23  1  0  0  0
 11 29  1  0  0  0
 13 25  1  0  0  0
 14 16  1  0  0  0
 14 22  1  0  0  0
 15 17  1  0  0  0
 15 22  1  0  0  0
 16 24  1  0  0  0
 17 24  1  0  0  0
 18 20  1  0  0  0
 19 29  1  0  0  0
 20 21  1  0  0  0
 21 24  1  0  0  0
 30 12  1  0  0  0
 30 23  1  0  0  0
  1  2  2  0  0  0
  3  5  2  0  0  0
  4 11  2  0  0  0
  6 12  2  0  0  0
  7 10  2  0  0  0
  8  9  2  0  0  0
 13 26  2  0  0  0
 30 27  2  0  0  0
 30 28  2  0  0  0
M  CHG  2  24   1  25  -1
M  END
> <rmsd>
0.707215905

$$$$
ZINC33253578


 30 31  0  0  0  0  0  0  0  0999 V2000
   -0.0388    2.7671   -1.2904 C   0  0  0  0  0
    1.0204    2.8837   -2.1904 C   0  0  0  0  0
   -2.4210   -2.2385   -1.8099 C   0  0  0  0  0
   -3.2443   -2.5883    0.4344 C   0  0  0  0  0
   -2.3844   -0.8629   -1.5821 C   0  0  0  0  0
   -3.2077   -1.2126    0.6622 C   0  0  0  0  0
    0.9945    0.8066   -0.3282 C   0  0  0  0  0
    2.0537    0.9231   -1.2283 C   0  0  0  0  0
   -0.0517    1.7285   -0.3592 C   0  0  0  0  0
    2.0667    1.9617   -2.1594 C   0  0  0  0  0
   -2.8511   -3.1012   -0.8018 C   0  0  0  0  0
   -2.7776   -0.3500   -0.3460 C   0  0  0  0  0
    3.1479   -0.0644   -1.1740 C   0  0  0  0  0
    5.9846    2.1142   -2.1873 C   0  0  0  0  0
    5.7933    4.6073   -1.9182 C   0  0  0  0  0
    1.9211    2.0125   -5.8036 C   0  0  0  0  0
    2.6118   -0.4033   -5.9105 C   0  0  0  0  0
   -2.4702   -4.9000   -2.3101 C   0  0  0  0  0
    3.9293    3.3247   -3.0721 C   0  0  0  0  0
    3.4516    1.0573   -4.0098 C   0  0  0  0  0
    5.0232    3.2885   -1.9980 C   0  0  0  0  0
    2.3042    0.7768   -4.9877 C   0  0  0  0  0
   -1.1366    1.6091    0.5613 N   0  0  0  0  0
    3.1073    2.0937   -3.0609 N   0  0  0  0  0
    3.0522   -1.1307   -1.8873 O   0  0  0  0  0
    4.1583    0.1758   -0.4150 O   0  0  0  0  0
   -3.6873    1.6730    0.9979 O   0  0  0  0  0
   -2.8589    2.0603   -1.3395 O   0  0  0  0  0
   -2.8865   -4.4435   -1.0239 O   0  0  0  0  0
   -2.7303    1.3955   -0.0569 S   0  0  0  0  0
  1  9  1  0  0  0
  2 10  1  0  0  0
  3 11  1  0  0  0
  4  6  1  0  0  0
  5 12  1  0  0  0
  7  8  1  0  0  0
  8 13  1  0  0  0
  9 23  1  0  0  0
 10 24  1  0  0  0
 11 29  1  0  0  0
 13 25  1  0  0  0
 14 21  1  0  0  0
 15 21  1  0  0  0
 16 22  1  0  0  0
 17 22  1  0  0  0
 18 29  1  0  0  0
 19 21  1  0  0  0
 19 24  1  0  0  0
 20 22  1  0  0  0
 20 24  1  0  0  0
 30 12  1  0  0  0
 30 23  1  0  0  0
  1  2  2  0  0  0
  3  5  2  0  0  0
  4 11  2  0  0  0
  6 12  2  0  0  0
  7  9  2  0  0  0
  8 10  2  0  0  0
 13 26  2  0  0  0
 30 27  2  0  0  0
 30 28  2  0  0  0
M  CHG  1  25  -1
M  END
> <rmsd>
0.707292318

$$$$
ZINC33253578


 30 31  0  0  0  0  0  0  0  0999 V2000
   -0.1074    2.5013   -1.5744 C   0  0  0  0  0
    0.8683    2.5242   -2.5710 C   0  0  0  0  0
   -2.9068   -2.3073   -1.7768 C   0  0  0  0  0
   -3.5396   -2.5659    0.5404 C   0  0  0  0  0
   -2.7429   -0.9364   -1.5791 C   0  0  0  0  0
   -3.3757   -1.1949    0.7382 C   0  0  0  0  0
    0.8577    0.4768   -0.6761 C   0  0  0  0  0
    1.8332    0.4996   -1.6727 C   0  0  0  0  0
   -0.1126    1.4776   -0.6269 C   0  0  0  0  0
    1.8386    1.5233   -2.6202 C   0  0  0  0  0
   -3.3052   -3.1221   -0.7171 C   0  0  0  0  0
   -2.9773   -0.3802   -0.3216 C   0  0  0  0  0
    2.8483   -0.5702   -1.7019 C   0  0  0  0  0
    5.7365    1.3674   -3.0150 C   0  0  0  0  0
    5.7642    3.8707   -2.7759 C   0  0  0  0  0
    1.3550    1.5440   -6.2354 C   0  0  0  0  0
    1.8442   -0.9196   -6.3609 C   0  0  0  0  0
   -3.2079   -4.9623   -2.2205 C   0  0  0  0  0
    3.7065    2.7254   -3.7274 C   0  0  0  0  0
    2.9693    0.4921   -4.5742 C   0  0  0  0  0
    4.8906    2.6156   -2.7591 C   0  0  0  0  0
    1.7167    0.2914   -5.4358 C   0  0  0  0  0
   -1.1120    1.4542    0.3926 N   0  0  0  0  0
    2.7968    1.5630   -3.6169 N   0  0  0  0  0
    2.6040   -1.6336   -2.3833 O   0  0  0  0  0
    3.9412   -0.4014   -1.0448 O   0  0  0  0  0
   -3.5977    1.7231    1.0631 O   0  0  0  0  0
   -2.9656    2.0176   -1.3480 O   0  0  0  0  0
   -3.4648   -4.4599   -0.9099 O   0  0  0  0  0
   -2.7685    1.3594   -0.0707 S   0  0  0  0  0
  1  9  1  0  0  0
  2 10  1  0  0  0
  3 11  1  0  0  0
  4  6  1  0  0  0
  5 12  1  0  0  0
  7  8  1  0  0  0
  8 13  1  0  0  0
  9 23  1  0  0  0
 10 24  1  0  0  0
 11 29  1  0  0  0
 13 25  1  0  0  0
 14 21  1  0  0  0
 15 21  1  0  0  0
 16 22  1  0  0  0
 17 22  1  0  0  0
 18 29  1  0  0  0
 19 21  1  0  0  0
 19 24  1  0  0  0
 20 22  1  0  0  0
 20 24  1  0  0  0
 30 12  1  0  0  0
 30 23  1  0  0  0
  1  2  2  0  0  0
  3  5  2  0  0  0
  4 11  2  0  0  0
  6 12  2  0  0  0
  7  9  2  0  0  0
  8 10  2  0  0  0
 13 26  2  0  0  0
 30 27  2  0  0  0
 30 28  2  0  0  0
M  CHG  1  25  -1
M  END
> <rmsd>
0.526210845

$$$$
ZINC13843248


 32 34  0  0  0  0  0  0  0  0999 V2000
   -2.2228    4.9674   -1.0695 C   0  0  0  0  0
   -0.8333    4.8961   -0.9711 C   0  0  0  0  0
    4.1566   -4.1483    0.7881 C   0  0  0  0  0
    3.2332   -3.8517    1.7905 C   0  0  0  0  0
   -3.0061    3.8787   -0.6860 C   0  0  0  0  0
   -5.4065   -2.1844    0.6465 C   0  0  0  0  0
   -3.9983   -3.1279   -1.0750 C   0  0  0  0  0
   -0.2270    3.7360   -0.4893 C   0  0  0  0  0
   -4.7392   -0.9655    0.5245 C   0  0  0  0  0
   -3.3309   -1.9091   -1.1971 C   0  0  0  0  0
    4.5886   -3.1463   -0.0810 C   0  0  0  0  0
    2.7416   -2.5532    1.9238 C   0  0  0  0  0
   -5.0360   -3.2655   -0.1531 C   0  0  0  0  0
   -2.3997    2.7187   -0.2042 C   0  0  0  0  0
   -3.7015   -0.8279   -0.3973 C   0  0  0  0  0
   -1.0102    2.6472   -0.1058 C   0  0  0  0  0
    4.0969   -1.8477    0.0523 C   0  0  0  0  0
    3.1734   -1.5511    1.0548 C   0  0  0  0  0
   -3.2560    1.5876    0.1922 C   0  0  0  0  0
   -5.7410   -4.5512   -0.0249 C   0  0  0  0  0
    0.9905    1.2624    0.5303 C   0  0  0  0  0
    1.2754   -0.1185    1.0800 C   0  0  0  0  0
   -3.0332    0.3907   -0.5184 N   0  0  0  0  0
   -0.3808    1.4946    0.3724 N   0  0  0  0  0
    4.5484   -0.8386   -0.8421 N   0  0  0  0  0
   -5.3798   -5.5336   -0.7752 O   0  0  0  0  0
    3.9185   -0.6488   -1.9093 O   0  0  0  0  0
   -4.1168    1.7195    1.0598 O   0  0  0  0  0
   -6.6961   -4.6513    0.8332 O   0  0  0  0  0
    1.9110    2.0317    0.2713 O   0  0  0  0  0
    5.5630   -0.1682   -0.5369 O   0  0  0  0  0
    2.6732   -0.2799    1.2054 O   0  0  0  0  0
  1  2  1  0  0  0
  3  4  1  0  0  0
  5 14  1  0  0  0
  6 13  1  0  0  0
  7 10  1  0  0  0
  8 16  1  0  0  0
  9 15  1  0  0  0
 11 17  1  0  0  0
 12 18  1  0  0  0
 13 20  1  0  0  0
 14 19  1  0  0  0
 15 23  1  0  0  0
 16 24  1  0  0  0
 17 25  1  0  0  0
 18 32  1  0  0  0
 19 23  1  0  0  0
 20 26  1  0  0  0
 21 24  1  0  0  0
 22 21  1  0  0  0
 22 32  1  0  0  0
 25 27  1  0  0  0
  1  5  2  0  0  0
  2  8  2  0  0  0
  3 11  2  0  0  0
  4 12  2  0  0  0
  6  9  2  0  0  0
  7 13  2  0  0  0
 10 15  2  0  0  0
 14 16  2  0  0  0
 17 18  2  0  0  0
 19 28  2  0  0  0
 20 29  2  0  0  0
 21 30  2  0  0  0
 25 31  2  0  0  0
M  CHG  3  25   1  26  -1  27  -1
M  END
> <rmsd>
0.575130641

$$$$
ZINC29058583


 30 33  0  0  0  0  0  0  0  0999 V2000
    1.0591   -2.3366   -3.5853 C   0  0  0  0  0
    0.0598   -3.0371   -4.2606 C   0  0  0  0  0
    0.7686   -3.7734   -1.6648 C   0  0  0  0  0
   -1.0263   -2.9541    1.8912 C   0  0  0  0  0
   -3.6631   -0.8062   -0.8235 C   0  0  0  0  0
   -0.2309   -4.4739   -2.3401 C   0  0  0  0  0
   -2.6649   -2.5707   -0.1651 C   0  0  0  0  0
    1.4136   -2.7048   -2.2874 C   0  0  0  0  0
   -0.5853   -4.1058   -3.6381 C   0  0  0  0  0
   -2.2954   -1.5715    0.7211 C   0  0  0  0  0
   -2.1334   -3.8371    0.0578 C   0  0  0  0  0
   -2.4055    3.1641    0.5703 C   0  0  0  0  0
   -1.8359    1.7937    0.2610 C   0  0  0  0  0
   -3.9041    2.9407    0.3933 C   0  0  0  0  0
   -2.8849    0.8830    0.8805 C   0  0  0  0  0
   -0.8927   -5.6155   -1.6188 C   0  0  0  0  0
   -4.3801    3.2078   -1.0278 C   0  0  0  0  0
   -1.4774   -1.6858    1.7780 N   0  0  0  0  0
   -1.2986   -4.0258    1.1080 N   0  0  0  0  0
   -3.5170   -2.0803   -1.1225 N   0  0  0  0  0
   -2.9423   -0.4503    0.2855 N   0  0  0  0  0
    2.4323   -1.9923   -1.6011 N   0  0  0  0  0
   -1.5020   -4.7364   -4.2768 O   0  0  0  0  0
    3.0007   -1.0352   -2.1803 O   0  0  0  0  0
    2.7361   -2.3390   -0.4340 O   0  0  0  0  0
   -4.1497    1.5493    0.7026 O   0  0  0  0  0
   -2.1469    3.4898    1.9360 O   0  0  0  0  0
   -0.5574    1.5854    0.8258 O   0  0  0  0  0
   -5.7743    2.9637   -1.0926 O   0  0  0  0  0
   -2.5396   -5.1757   -1.0098 S   0  0  0  0  0
  1  2  1  0  0  0
  3  8  1  0  0  0
  4 19  1  0  0  0
  5 21  1  0  0  0
  6  9  1  0  0  0
  7 11  1  0  0  0
  7 20  1  0  0  0
  8 22  1  0  0  0
  9 23  1  0  0  0
 10 18  1  0  0  0
 10 21  1  0  0  0
 11 30  1  0  0  0
 12 13  1  0  0  0
 12 14  1  0  0  0
 12 27  1  0  0  0
 13 15  1  0  0  0
 13 28  1  0  0  0
 14 17  1  0  0  0
 14 26  1  0  0  0
 15 21  1  0  0  0
 15 26  1  0  0  0
 16  6  1  0  0  0
 16 30  1  0  0  0
 17 29  1  0  0  0
 22 24  1  0  0  0
  1  8  2  0  0  0
  2  9  2  0  0  0
  3  6  2  0  0  0
  4 18  2  0  0  0
  5 20  2  0  0  0
  7 10  2  0  0  0
 11 19  2  0  0  0
 22 25  2  0  0  0
M  CHG  3  22   1  23  -1  24  -1
M  END
> <rmsd>
0.596327662

$$$$
ZINC03830264


 28 29  0  0  0  0  0  0  0  0999 V2000
   -4.6176   -1.0755    0.5849 C   0  0  0  0  0
   -3.5500   -0.4648   -0.0390 C   0  0  0  0  0
   -3.4371   -2.4184   -1.0293 C   0  0  0  0  0
    0.9927    0.9423   -1.6307 C   0  0  0  0  0
   -3.1168    0.9309    0.2396 C   0  0  0  0  0
   -1.9337    1.4885   -0.5070 C   0  0  0  0  0
   -3.8043    2.8798    3.5308 C   0  0  0  0  0
    0.5315    1.6959   -0.3717 C   0  0  0  0  0
    1.7796    1.0931    0.3009 C   0  0  0  0  0
    2.9004    2.0156    0.7150 C   0  0  0  0  0
   -5.3315    3.8461    1.6866 C   0  0  0  0  0
   -3.2268    5.0125    2.3924 C   0  0  0  0  0
   -3.9089    3.6612    2.2018 C   0  0  0  0  0
   -2.8715   -1.2335   -0.9646 N   0  0  0  0  0
   -3.7408    1.6594    1.1155 N   0  0  0  0  0
    2.0717    0.4481   -0.9686 N   0  0  0  0  0
   -3.0185   -3.4237   -1.8431 N   0  0  0  0  0
   -0.7437    1.2598    0.1466 N   0  0  0  0  0
   -2.6368    2.7137    3.9837 O   0  0  0  0  0
    0.6324    0.7912   -2.7766 O   0  0  0  0  0
   -2.1374    2.0577   -1.5673 O   0  0  0  0  0
   -4.9064    2.4951    4.0195 O   0  0  0  0  0
    2.9685   -1.1990   -2.7192 O   0  0  0  0  0
    3.9357   -1.2197   -0.3944 O   0  0  0  0  0
    4.4901    0.6249   -1.9742 O   0  0  0  0  0
   -3.1717    2.9353    1.2303 O   0  0  0  0  0
   -4.7895   -2.6767   -0.0050 S   0  0  0  0  0
    3.3589   -0.4695   -1.5114 S   0  0  0  0  0
  1 27  1  0  0  0
  2  5  1  0  0  0
  2 14  1  0  0  0
  3 17  1  0  0  0
  3 27  1  0  0  0
  4 16  1  0  0  0
  5  6  1  0  0  0
  6 18  1  0  0  0
  7 19  1  0  0  0
  8  4  1  0  0  0
  8  9  1  0  0  0
  8 18  1  0  0  0
  9 10  1  0  0  0
  9 16  1  0  0  0
 11 13  1  0  0  0
 12 13  1  0  0  0
 13  7  1  0  0  0
 13 26  1  0  0  0
 15 26  1  0  0  0
 28 16  1  0  0  0
 28 25  1  0  0  0
  1  2  2  0  0  0
  3 14  2  0  0  0
  4 20  2  0  0  0
  5 15  2  0  0  0
  6 21  2  0  0  0
  7 22  2  0  0  0
 28 23  2  0  0  0
 28 24  2  0  0  0
M  CHG  1  19  -1
M  END
> <rmsd>
0.346830964

$$$$
ZINC03830264


 28 29  0  0  0  0  0  0  0  0999 V2000
   -2.9097   -1.2860   -0.9844 C   0  0  0  0  0
   -3.5358   -0.4673   -0.0680 C   0  0  0  0  0
   -4.8035   -2.2428    0.1561 C   0  0  0  0  0
    1.0120    0.9601   -1.6267 C   0  0  0  0  0
   -3.1054    0.9262    0.2259 C   0  0  0  0  0
   -1.9197    1.4923   -0.5102 C   0  0  0  0  0
   -3.8090    2.8424    3.5328 C   0  0  0  0  0
    0.5446    1.7010   -0.3624 C   0  0  0  0  0
    1.7905    1.0931    0.3096 C   0  0  0  0  0
    2.9086    2.0128    0.7373 C   0  0  0  0  0
   -5.3295    3.8249    1.6916 C   0  0  0  0  0
   -3.2291    4.9867    2.4175 C   0  0  0  0  0
   -3.9089    3.6365    2.2110 C   0  0  0  0  0
   -4.6221   -1.0140    0.5867 N   0  0  0  0  0
   -3.7339    1.6455    1.1062 N   0  0  0  0  0
    2.0887    0.4607   -0.9649 N   0  0  0  0  0
   -5.7899   -3.0699    0.5932 N   0  0  0  0  0
   -0.7323    1.2586    0.1462 N   0  0  0  0  0
   -2.6432    2.6733    3.9891 O   0  0  0  0  0
    0.6568    0.8197   -2.7755 O   0  0  0  0  0
   -2.1196    2.0715   -1.5659 O   0  0  0  0  0
   -4.9127    2.4518    4.0131 O   0  0  0  0  0
    2.9948   -1.1685   -2.7274 O   0  0  0  0  0
    3.9522   -1.2106   -0.3989 O   0  0  0  0  0
    4.5111    0.6499   -1.9584 O   0  0  0  0  0
   -3.1667    2.9209    1.2357 O   0  0  0  0  0
   -3.7040   -2.8053   -1.0353 S   0  0  0  0  0
    3.3793   -0.4502   -1.5110 S   0  0  0  0  0
  1 27  1  0  0  0
  2  5  1  0  0  0
  2 14  1  0  0  0
  3 17  1  0  0  0
  3 27  1  0  0  0
  4 16  1  0  0  0
  5  6  1  0  0  0
  6 18  1  0  0  0
  7 19  1  0  0  0
  8  4  1  0  0  0
  8  9  1  0  0  0
  8 18  1  0  0  0
  9 10  1  0  0  0
  9 16  1  0  0  0
 11 13  1  0  0  0
 12 13  1  0  0  0
 13  7  1  0  0  0
 13 26  1  0  0  0
 15 26  1  0  0  0
 28 16  1  0  0  0
 28 25  1  0  0  0
  1  2  2  0  0  0
  3 14  2  0  0  0
  4 20  2  0  0  0
  5 15  2  0  0  0
  6 21  2  0  0  0
  7 22  2  0  0  0
 28 23  2  0  0  0
 28 24  2  0  0  0
M  CHG  1  19  -1
M  END
> <rmsd>
0.359704942

$$$$
ZINC16990696


 30 33  0  0  0  0  0  0  0  0999 V2000
    0.5535   -3.5609   -2.9538 C   0  0  0  0  0
    0.2391   -3.5368   -0.5585 C   0  0  0  0  0
    1.6630   -2.7267   -2.8166 C   0  0  0  0  0
    1.3487   -2.7026   -0.4212 C   0  0  0  0  0
   -2.7874    0.5432   -2.3657 C   0  0  0  0  0
   -0.1585   -3.9658   -1.8247 C   0  0  0  0  0
   -2.9404   -1.4228   -1.5568 C   0  0  0  0  0
    2.0606   -2.2976   -1.5503 C   0  0  0  0  0
   -3.0994   -0.5574   -0.4861 C   0  0  0  0  0
   -3.0013   -2.7848   -1.2791 C   0  0  0  0  0
   -3.3461   -2.2273    0.9429 C   0  0  0  0  0
   -2.2906    3.4335    1.3550 C   0  0  0  0  0
   -1.7898    2.4941    0.2745 C   0  0  0  0  0
   -3.6255    2.8246    1.7963 C   0  0  0  0  0
   -3.0960    1.9622   -0.3056 C   0  0  0  0  0
   -1.3556   -4.8640   -1.9729 C   0  0  0  0  0
   -3.5559    2.1187    3.1421 C   0  0  0  0  0
   -2.7466   -0.7238   -2.7217 N   0  0  0  0  0
   -3.3068   -0.8847    0.7981 N   0  0  0  0  0
   -3.2083   -3.1881   -0.0024 N   0  0  0  0  0
   -2.9986    0.6952   -1.0210 N   0  0  0  0  0
   -3.5602   -2.6941    2.2601 N   0  0  0  0  0
    3.1914   -1.4500   -1.4114 N   0  0  0  0  0
    3.8183   -1.0991   -2.4402 O   0  0  0  0  0
    3.5326   -1.0747   -0.2638 O   0  0  0  0  0
   -4.0071    1.8555    0.7995 O   0  0  0  0  0
   -2.5345    4.7062    0.7584 O   0  0  0  0  0
   -1.0027    1.4662    0.8631 O   0  0  0  0  0
   -4.8399    1.6051    3.4569 O   0  0  0  0  0
   -2.8118   -3.9684   -2.5675 S   0  0  0  0  0
  1  3  1  0  0  0
  2  6  1  0  0  0
  4  8  1  0  0  0
  5 21  1  0  0  0
  7 10  1  0  0  0
  7 18  1  0  0  0
  8 23  1  0  0  0
  9 19  1  0  0  0
  9 21  1  0  0  0
 10 30  1  0  0  0
 11 20  1  0  0  0
 11 22  1  0  0  0
 12 13  1  0  0  0
 12 14  1  0  0  0
 12 27  1  0  0  0
 13 15  1  0  0  0
 13 28  1  0  0  0
 14 17  1  0  0  0
 14 26  1  0  0  0
 15 21  1  0  0  0
 15 26  1  0  0  0
 16  6  1  0  0  0
 16 30  1  0  0  0
 17 29  1  0  0  0
 23 24  1  0  0  0
  1  6  2  0  0  0
  2  4  2  0  0  0
  3  8  2  0  0  0
  5 18  2  0  0  0
  7  9  2  0  0  0
 10 20  2  0  0  0
 11 19  2  0  0  0
 23 25  2  0  0  0
M  CHG  2  23   1  24  -1
M  END
> <rmsd>
0.539485693

$$$$
ZINC16990696


 30 33  0  0  0  0  0  0  0  0999 V2000
    1.0894   -4.2775   -0.9057 C   0  0  0  0  0
    1.0799   -3.1885    1.2510 C   0  0  0  0  0
    1.9916   -3.3263   -1.3820 C   0  0  0  0  0
    1.9823   -2.2373    0.7746 C   0  0  0  0  0
   -2.9866   -0.8944   -1.4458 C   0  0  0  0  0
    0.6335   -4.2085    0.4108 C   0  0  0  0  0
   -2.5921   -2.2586    0.1436 C   0  0  0  0  0
    2.4381   -2.3063   -0.5418 C   0  0  0  0  0
   -2.8059   -1.0276    0.7431 C   0  0  0  0  0
   -2.3106   -3.3286    0.9872 C   0  0  0  0  0
   -2.4908   -1.8583    2.7684 C   0  0  0  0  0
   -2.6894    3.4311    0.4638 C   0  0  0  0  0
   -2.1297    2.1796   -0.1854 C   0  0  0  0  0
   -3.7875    2.9134    1.3983 C   0  0  0  0  0
   -3.3454    1.2588   -0.1856 C   0  0  0  0  0
   -0.3405   -5.2331    0.9239 C   0  0  0  0  0
   -3.3935    2.9317    2.8676 C   0  0  0  0  0
   -2.7074   -2.1612   -1.2204 N   0  0  0  0  0
   -2.7723   -0.7466    2.0543 N   0  0  0  0  0
   -2.2604   -3.1175    2.3245 N   0  0  0  0  0
   -3.0565   -0.1670   -0.2874 N   0  0  0  0  0
   -2.4282   -1.6849    4.1701 N   0  0  0  0  0
    3.3581   -1.3396   -1.0270 N   0  0  0  0  0
    3.7566   -1.4213   -2.2141 O   0  0  0  0  0
    3.7473   -0.4297   -0.2557 O   0  0  0  0  0
   -4.0637    1.5489    1.0238 O   0  0  0  0  0
   -3.2853    4.2314   -0.5558 O   0  0  0  0  0
   -1.0649    1.6671    0.6056 O   0  0  0  0  0
   -4.4797    2.4457    3.6393 O   0  0  0  0  0
   -2.0232   -4.9345    0.3275 S   0  0  0  0  0
  1  3  1  0  0  0
  2  6  1  0  0  0
  4  8  1  0  0  0
  5 21  1  0  0  0
  7 10  1  0  0  0
  7 18  1  0  0  0
  8 23  1  0  0  0
  9 19  1  0  0  0
  9 21  1  0  0  0
 10 30  1  0  0  0
 11 20  1  0  0  0
 11 22  1  0  0  0
 12 13  1  0  0  0
 12 14  1  0  0  0
 12 27  1  0  0  0
 13 15  1  0  0  0
 13 28  1  0  0  0
 14 17  1  0  0  0
 14 26  1  0  0  0
 15 21  1  0  0  0
 15 26  1  0  0  0
 16  6  1  0  0  0
 16 30  1  0  0  0
 17 29  1  0  0  0
 23 24  1  0  0  0
  1  6  2  0  0  0
  2  4  2  0  0  0
  3  8  2  0  0  0
  5 18  2  0  0  0
  7  9  2  0  0  0
 10 20  2  0  0  0
 11 19  2  0  0  0
 23 25  2  0  0  0
M  CHG  2  23   1  24  -1
M  END
> <rmsd>
0.692824125

$$$$
ZINC39977394


 31 34  0  0  0  0  0  0  0  0999 V2000
    2.0543    3.0160   -1.9289 C   0  0  0  0  0
    2.8889    1.9016   -2.0124 C   0  0  0  0  0
   -4.7623    7.6562    2.0895 C   0  0  0  0  0
   -3.0535    7.2203    3.7408 C   0  0  0  0  0
    0.8503    2.9349   -1.2290 C   0  0  0  0  0
   -4.8732    6.2878    1.8430 C   0  0  0  0  0
   -3.1644    5.8519    3.4943 C   0  0  0  0  0
    1.3159    0.6249   -0.6961 C   0  0  0  0  0
    2.5198    0.7060   -1.3960 C   0  0  0  0  0
   -3.8525    8.1224    3.0383 C   0  0  0  0  0
    0.4812    1.7393   -0.6127 C   0  0  0  0  0
   -4.0743    5.3856    2.5454 C   0  0  0  0  0
   -5.0018   -2.0783    0.3192 C   0  0  0  0  0
   -4.5177   -2.2183   -1.0320 C   0  0  0  0  0
   -4.7441   -1.0087    1.0800 C   0  0  0  0  0
   -3.7194   -1.3187   -1.6179 C   0  0  0  0  0
   -3.9234    0.0883    0.5188 C   0  0  0  0  0
   -3.3237   -0.1296   -0.8394 C   0  0  0  0  0
   -2.9934    2.1945    0.5873 C   0  0  0  0  0
    3.4006   -0.4696   -1.4845 C   0  0  0  0  0
   -2.0075    1.8893   -0.5131 C   0  0  0  0  0
   -3.7321    9.5855    3.3007 C   0  0  0  0  0
   -3.7360    1.1950    1.1655 N   0  0  0  0  0
   -3.1278    3.3980    1.0431 N   0  0  0  0  0
   -2.4697    0.7202   -1.2789 N   0  0  0  0  0
   -0.7161    1.6591    0.0835 N   0  0  0  0  0
    3.0370   -1.5615   -0.9064 O   0  0  0  0  0
    4.5064   -0.3680   -2.1369 O   0  0  0  0  0
   -3.7850    3.0025    3.4605 O   0  0  0  0  0
   -5.5509    3.4193    1.7130 O   0  0  0  0  0
   -4.2143    3.6477    2.2328 S   0  0  0  0  0
  1  2  1  0  0  0
  3 10  1  0  0  0
  4  7  1  0  0  0
  5 11  1  0  0  0
  6 12  1  0  0  0
  8  9  1  0  0  0
  9 20  1  0  0  0
 11 26  1  0  0  0
 13 14  1  0  0  0
 15 17  1  0  0  0
 16 18  1  0  0  0
 17 18  1  0  0  0
 19 23  1  0  0  0
 20 27  1  0  0  0
 21 19  1  0  0  0
 21 25  1  0  0  0
 21 26  1  0  0  0
 22 10  1  0  0  0
 31 12  1  0  0  0
 31 24  1  0  0  0
  1  5  2  0  0  0
  2  9  2  0  0  0
  3  6  2  0  0  0
  4 10  2  0  0  0
  7 12  2  0  0  0
  8 11  2  0  0  0
 13 15  2  0  0  0
 14 16  2  0  0  0
 17 23  2  0  0  0
 18 25  2  0  0  0
 19 24  2  0  0  0
 20 28  2  0  0  0
 31 29  2  0  0  0
 31 30  2  0  0  0
M  CHG  2  25   1  27  -1
M  END
> <rmsd>
0.555747151

$$$$
ZINC35397509


 30 31  0  0  0  0  0  0  0  0999 V2000
   -2.9165   -2.3217   -1.7548 C   0  0  0  0  0
   -3.5698   -2.5604    0.5589 C   0  0  0  0  0
   -2.7441   -0.9507   -1.5648 C   0  0  0  0  0
   -3.3973   -1.1894    0.7490 C   0  0  0  0  0
    0.8677    0.4568   -0.6590 C   0  0  0  0  0
   -0.0607    2.4524   -1.5603 C   0  0  0  0  0
    1.8374    0.4942   -1.6548 C   0  0  0  0  0
   -0.1030    1.4507   -0.6038 C   0  0  0  0  0
   -3.3294   -3.1266   -0.6930 C   0  0  0  0  0
   -2.9844   -0.3845   -0.3128 C   0  0  0  0  0
    1.7927    1.5385   -2.5643 C   0  0  0  0  0
    2.8645   -0.5599   -1.7110 C   0  0  0  0  0
    5.6920    1.3863   -2.9470 C   0  0  0  0  0
    5.7175    3.8888   -2.6990 C   0  0  0  0  0
    1.3209    1.5716   -6.1809 C   0  0  0  0  0
    1.8120   -0.8913   -6.3135 C   0  0  0  0  0
   -3.2339   -4.9772   -2.1836 C   0  0  0  0  0
    3.6636    2.7456   -3.6611 C   0  0  0  0  0
    2.9304    0.5148   -4.5183 C   0  0  0  0  0
    4.8445    2.6332   -2.6894 C   0  0  0  0  0
    1.6807    0.3164   -5.3847 C   0  0  0  0  0
    0.8654    2.5221   -2.5426 N   0  0  0  0  0
   -1.1099    1.4394    0.4046 N   0  0  0  0  0
    2.7542    1.5823   -3.5578 N   0  0  0  0  0
    2.6287   -1.6170   -2.4069 O   0  0  0  0  0
    3.9632   -0.3885   -1.0623 O   0  0  0  0  0
   -3.6015    1.7327    1.0520 O   0  0  0  0  0
   -2.9451    2.0062   -1.3550 O   0  0  0  0  0
   -3.4975   -4.4644   -0.8784 O   0  0  0  0  0
   -2.7647    1.3551   -0.0717 S   0  0  0  0  0
  1  9  1  0  0  0
  2  4  1  0  0  0
  3 10  1  0  0  0
  5  8  1  0  0  0
  6 22  1  0  0  0
  7 11  1  0  0  0
  7 12  1  0  0  0
  8 23  1  0  0  0
  9 29  1  0  0  0
 11 24  1  0  0  0
 12 25  1  0  0  0
 13 20  1  0  0  0
 14 20  1  0  0  0
 15 21  1  0  0  0
 16 21  1  0  0  0
 17 29  1  0  0  0
 18 20  1  0  0  0
 18 24  1  0  0  0
 19 21  1  0  0  0
 19 24  1  0  0  0
 30 10  1  0  0  0
 30 23  1  0  0  0
  1  3  2  0  0  0
  2  9  2  0  0  0
  4 10  2  0  0  0
  5  7  2  0  0  0
  6  8  2  0  0  0
 11 22  2  0  0  0
 12 26  2  0  0  0
 30 27  2  0  0  0
 30 28  2  0  0  0
M  CHG  1  25  -1
M  END
> <rmsd>
0.510410309

$$$$
ZINC35397509


 30 31  0  0  0  0  0  0  0  0999 V2000
   -2.4340   -2.2554   -1.7864 C   0  0  0  0  0
   -3.2792   -2.5849    0.4529 C   0  0  0  0  0
   -2.3873   -0.8789   -1.5663 C   0  0  0  0  0
   -3.2324   -1.2083    0.6730 C   0  0  0  0  0
    1.0039    0.7844   -0.3094 C   0  0  0  0  0
    0.0109    2.7189   -1.2727 C   0  0  0  0  0
    2.0562    0.9138   -1.2089 C   0  0  0  0  0
   -0.0421    1.7000   -0.3352 C   0  0  0  0  0
   -2.8800   -3.1085   -0.7769 C   0  0  0  0  0
   -2.7864   -0.3552   -0.3366 C   0  0  0  0  0
    2.0153    1.9677   -2.1074 C   0  0  0  0  0
    3.1631   -0.0575   -1.1794 C   0  0  0  0  0
    5.9332    2.1213   -2.1227 C   0  0  0  0  0
    5.7405    4.6135   -1.8467 C   0  0  0  0  0
    1.8810    2.0295   -5.7518 C   0  0  0  0  0
    2.5726   -0.3858   -5.8638 C   0  0  0  0  0
   -2.5023   -4.9193   -2.2715 C   0  0  0  0  0
    3.8804    3.3340   -3.0102 C   0  0  0  0  0
    3.4061    1.0693   -3.9563 C   0  0  0  0  0
    4.9709    3.2948   -1.9328 C   0  0  0  0  0
    2.2618    0.7915   -4.9386 C   0  0  0  0  0
    1.0162    2.8769   -2.1626 N   0  0  0  0  0
   -1.1346    1.5936    0.5737 N   0  0  0  0  0
    3.0587    2.1028   -3.0053 N   0  0  0  0  0
    3.0761   -1.1169   -1.9057 O   0  0  0  0  0
    4.1799    0.1858   -0.4283 O   0  0  0  0  0
   -3.6908    1.6837    0.9866 O   0  0  0  0  0
   -2.8365    2.0498   -1.3448 O   0  0  0  0  0
   -2.9254   -4.4516   -0.9916 O   0  0  0  0  0
   -2.7262    1.3915   -0.0573 S   0  0  0  0  0
  1  9  1  0  0  0
  2  4  1  0  0  0
  3 10  1  0  0  0
  5  8  1  0  0  0
  6 22  1  0  0  0
  7 11  1  0  0  0
  7 12  1  0  0  0
  8 23  1  0  0  0
  9 29  1  0  0  0
 11 24  1  0  0  0
 12 25  1  0  0  0
 13 20  1  0  0  0
 14 20  1  0  0  0
 15 21  1  0  0  0
 16 21  1  0  0  0
 17 29  1  0  0  0
 18 20  1  0  0  0
 18 24  1  0  0  0
 19 21  1  0  0  0
 19 24  1  0  0  0
 30 10  1  0  0  0
 30 23  1  0  0  0
  1  3  2  0  0  0
  2  9  2  0  0  0
  4 10  2  0  0  0
  5  7  2  0  0  0
  6  8  2  0  0  0
 11 22  2  0  0  0
 12 26  2  0  0  0
 30 27  2  0  0  0
 30 28  2  0  0  0
M  CHG  1  25  -1
M  END
> <rmsd>
0.689451694

$$$$
ZINC14025722


 32 34  0  0  0  0  0  0  0  0999 V2000
   -2.2225    4.9668   -1.0697 C   0  0  0  0  0
   -0.8331    4.8956   -0.9713 C   0  0  0  0  0
    4.1577   -4.1478    0.7900 C   0  0  0  0  0
    3.2344   -3.8510    1.7924 C   0  0  0  0  0
   -3.0057    3.8782   -0.6858 C   0  0  0  0  0
   -0.2265    3.7357   -0.4892 C   0  0  0  0  0
   -4.7392   -0.9656    0.5254 C   0  0  0  0  0
   -3.3313   -1.9092   -1.1964 C   0  0  0  0  0
    4.5896   -3.1460   -0.0794 C   0  0  0  0  0
    2.7426   -2.5526    1.9254 C   0  0  0  0  0
   -5.4072   -2.1839    0.6471 C   0  0  0  0  0
   -3.9993   -3.1277   -1.0746 C   0  0  0  0  0
   -2.3992    2.7183   -0.2037 C   0  0  0  0  0
   -3.7013   -0.8282   -0.3965 C   0  0  0  0  0
   -1.0096    2.6470   -0.1054 C   0  0  0  0  0
    4.0978   -1.8476    0.0537 C   0  0  0  0  0
   -5.0372   -3.2651   -0.1529 C   0  0  0  0  0
    3.1743   -1.5507    1.0560 C   0  0  0  0  0
   -3.2464    1.5990    0.1889 C   0  0  0  0  0
    0.9912    1.2624    0.5310 C   0  0  0  0  0
   -7.0424   -6.0935   -1.1362 C   0  0  0  0  0
    1.2762   -0.1182    1.0810 C   0  0  0  0  0
   -5.7762   -5.2666   -1.2035 C   0  0  0  0  0
   -3.0220    0.4101   -0.5197 N   0  0  0  0  0
   -0.3801    1.4945    0.3731 N   0  0  0  0  0
    4.5492   -0.8387   -0.8411 N   0  0  0  0  0
    3.9192   -0.6490   -1.9083 O   0  0  0  0  0
   -4.1165    1.7194    1.0601 O   0  0  0  0  0
    1.9115    2.0318    0.2717 O   0  0  0  0  0
    5.5637   -0.1680   -0.5361 O   0  0  0  0  0
    2.6740   -0.2794    1.2063 O   0  0  0  0  0
   -5.6891   -4.4538   -0.0341 O   0  0  0  0  0
  1  2  1  0  0  0
  3  4  1  0  0  0
  5 13  1  0  0  0
  6 15  1  0  0  0
  7 14  1  0  0  0
  8 12  1  0  0  0
  9 16  1  0  0  0
 10 18  1  0  0  0
 11 17  1  0  0  0
 13 19  1  0  0  0
 14 24  1  0  0  0
 15 25  1  0  0  0
 16 26  1  0  0  0
 17 32  1  0  0  0
 18 31  1  0  0  0
 19 24  1  0  0  0
 20 25  1  0  0  0
 21 23  1  0  0  0
 22 20  1  0  0  0
 22 31  1  0  0  0
 23 32  1  0  0  0
 26 27  1  0  0  0
  1  5  2  0  0  0
  2  6  2  0  0  0
  3  9  2  0  0  0
  4 10  2  0  0  0
  7 11  2  0  0  0
  8 14  2  0  0  0
 12 17  2  0  0  0
 13 15  2  0  0  0
 16 18  2  0  0  0
 19 28  2  0  0  0
 20 29  2  0  0  0
 26 30  2  0  0  0
M  CHG  2  26   1  27  -1
M  END
> <rmsd>
0.575345933

$$$$
ZINC09356151


 30 32  0  0  0  0  0  0  0  0999 V2000
    0.7126    2.4551   -2.7199 C   0  0  0  0  0
   -0.1847    2.4604   -1.6520 C   0  0  0  0  0
    1.5541    1.3603   -2.9184 C   0  0  0  0  0
   -3.2292   -2.2926   -1.7477 C   0  0  0  0  0
   -3.0018   -0.9294   -1.5595 C   0  0  0  0  0
   -3.5066   -1.1696    0.7910 C   0  0  0  0  0
   -3.7340   -2.5330    0.6027 C   0  0  0  0  0
    0.6011    0.2765   -0.9810 C   0  0  0  0  0
   -0.2404    1.3711   -0.7824 C   0  0  0  0  0
    1.4983    0.2711   -2.0489 C   0  0  0  0  0
   -3.5954   -3.0945   -0.6666 C   0  0  0  0  0
   -3.1405   -0.3679   -0.2902 C   0  0  0  0  0
   -4.1192   -3.3595    1.7545 C   0  0  0  0  0
   -1.6642   -3.8370    2.2478 C   0  0  0  0  0
   -3.4485   -4.8568    3.6043 C   0  0  0  0  0
   -0.9228   -3.5436    3.5468 C   0  0  0  0  0
   -2.6372   -4.5099    4.8441 C   0  0  0  0  0
    0.5366   -0.8905   -0.0440 C   0  0  0  0  0
   -3.6478   -4.9100   -2.2018 C   0  0  0  0  0
   -3.1047   -3.9597    2.5022 N   0  0  0  0  0
   -1.1733    1.3982    0.3117 N   0  0  0  0  0
    2.3672   -0.8329   -2.2721 N   0  0  0  0  0
    3.4976   -0.8330   -1.7301 O   0  0  0  0  0
   -5.3256   -3.4646    1.9709 O   0  0  0  0  0
    1.9764   -1.7727   -3.0039 O   0  0  0  0  0
   -3.5932    1.7529    1.1322 O   0  0  0  0  0
   -3.1050    2.0308   -1.3140 O   0  0  0  0  0
   -1.2403   -4.5239    4.5379 O   0  0  0  0  0
   -3.8131   -4.4241   -0.8713 O   0  0  0  0  0
   -2.8557    1.3384   -0.0555 S   0  0  0  0  0
  1  2  1  0  0  0
  3 10  1  0  0  0
  4 11  1  0  0  0
  5 12  1  0  0  0
  6  7  1  0  0  0
  7 13  1  0  0  0
  8  9  1  0  0  0
  9 21  1  0  0  0
 10 22  1  0  0  0
 11 29  1  0  0  0
 13 20  1  0  0  0
 14 16  1  0  0  0
 14 20  1  0  0  0
 15 17  1  0  0  0
 15 20  1  0  0  0
 16 28  1  0  0  0
 17 28  1  0  0  0
 18  8  1  0  0  0
 19 29  1  0  0  0
 22 23  1  0  0  0
 30 12  1  0  0  0
 30 21  1  0  0  0
  1  3  2  0  0  0
  2  9  2  0  0  0
  4  5  2  0  0  0
  6 12  2  0  0  0
  7 11  2  0  0  0
  8 10  2  0  0  0
 13 24  2  0  0  0
 22 25  2  0  0  0
 30 26  2  0  0  0
 30 27  2  0  0  0
M  CHG  2  22   1  23  -1
M  END
> <rmsd>
0.396048486

$$$$
ZINC09356151


 30 32  0  0  0  0  0  0  0  0999 V2000
    0.7125    2.4560   -2.7192 C   0  0  0  0  0
   -0.1847    2.4612   -1.6514 C   0  0  0  0  0
    1.5540    1.3613   -2.9179 C   0  0  0  0  0
   -3.7345   -2.5313    0.6049 C   0  0  0  0  0
   -3.5068   -1.1680    0.7918 C   0  0  0  0  0
   -3.0023   -0.9299   -1.5589 C   0  0  0  0  0
   -3.2299   -2.2934   -1.7458 C   0  0  0  0  0
    0.6009    0.2772   -0.9805 C   0  0  0  0  0
   -0.2406    1.3718   -0.7820 C   0  0  0  0  0
    1.4981    0.2720   -2.0484 C   0  0  0  0  0
   -3.5960   -3.0941   -0.6639 C   0  0  0  0  0
   -3.1407   -0.3673   -0.2900 C   0  0  0  0  0
   -3.0783   -2.8660   -3.0900 C   0  0  0  0  0
   -5.5332   -2.3883   -3.5835 C   0  0  0  0  0
   -4.1095   -3.5295   -5.2372 C   0  0  0  0  0
   -6.0845   -1.5433   -4.7258 C   0  0  0  0  0
   -4.7125   -2.6290   -6.3054 C   0  0  0  0  0
    0.5363   -0.8900   -0.0438 C   0  0  0  0  0
   -4.1927   -5.1676    0.3362 C   0  0  0  0  0
   -4.1973   -2.8925   -3.9241 N   0  0  0  0  0
   -1.1737    1.3988    0.3121 N   0  0  0  0  0
    2.3671   -0.8320   -2.2718 N   0  0  0  0  0
    3.4974   -0.8322   -1.7298 O   0  0  0  0  0
   -1.9600   -3.2897   -3.3791 O   0  0  0  0  0
    1.9763   -1.7717   -3.0036 O   0  0  0  0  0
   -3.5935    1.7535    1.1325 O   0  0  0  0  0
   -3.1052    2.0316   -1.3136 O   0  0  0  0  0
   -6.0530   -2.2767   -5.9527 O   0  0  0  0  0
   -3.8229   -4.4281   -0.8257 O   0  0  0  0  0
   -2.8559    1.3391   -0.0552 S   0  0  0  0  0
  1  2  1  0  0  0
  3 10  1  0  0  0
  4 11  1  0  0  0
  5 12  1  0  0  0
  6  7  1  0  0  0
  7 13  1  0  0  0
  8  9  1  0  0  0
  9 21  1  0  0  0
 10 22  1  0  0  0
 11 29  1  0  0  0
 13 20  1  0  0  0
 14 16  1  0  0  0
 14 20  1  0  0  0
 15 17  1  0  0  0
 15 20  1  0  0  0
 16 28  1  0  0  0
 17 28  1  0  0  0
 18  8  1  0  0  0
 19 29  1  0  0  0
 22 23  1  0  0  0
 30 12  1  0  0  0
 30 21  1  0  0  0
  1  3  2  0  0  0
  2  9  2  0  0  0
  4  5  2  0  0  0
  6 12  2  0  0  0
  7 11  2  0  0  0
  8 10  2  0  0  0
 13 24  2  0  0  0
 22 25  2  0  0  0
 30 26  2  0  0  0
 30 27  2  0  0  0
M  CHG  2  22   1  23  -1
M  END
> <rmsd>
0.395712346

$$$$
ZINC22367948


 30 33  0  0  0  0  0  0  0  0999 V2000
    0.9932    2.8185   -2.2666 C   0  0  0  0  0
   -0.0554    2.7198   -1.3522 C   0  0  0  0  0
   -3.2572   -2.5877    0.4257 C   0  0  0  0  0
   -3.2068   -1.2136    0.6578 C   0  0  0  0  0
    0.9995    0.7909   -0.3505 C   0  0  0  0  0
   -2.3806   -0.8697   -1.5830 C   0  0  0  0  0
    2.0450    1.9034   -2.2230 C   0  0  0  0  0
   -0.0524    1.7060   -0.3941 C   0  0  0  0  0
    2.0481    0.8895   -1.2649 C   0  0  0  0  0
   -2.8843   -3.1106   -0.8179 C   0  0  0  0  0
   -2.4035   -2.2500   -1.8143 C   0  0  0  0  0
   -2.7787   -0.3536   -0.3501 C   0  0  0  0  0
   -2.2074   -5.0542   -3.1560 C   0  0  0  0  0
    4.2404    2.8587   -2.7913 C   0  0  0  0  0
    2.7987    1.9393   -4.5863 C   0  0  0  0  0
   -3.4138   -4.9001   -2.2427 C   0  0  0  0  0
   -1.2448   -3.8824   -3.0413 C   0  0  0  0  0
    5.4408    2.4717   -3.6477 C   0  0  0  0  0
    4.0760    1.6019   -5.3473 C   0  0  0  0  0
    3.0851    2.0246   -3.1502 N   0  0  0  0  0
   -1.1335    1.6050    0.5487 N   0  0  0  0  0
    3.1094   -0.0562   -1.1977 N   0  0  0  0  0
    3.0195   -1.1147   -1.8626 O   0  0  0  0  0
    4.1018    0.1986   -0.4760 O   0  0  0  0  0
   -3.6723    1.6715    1.0014 O   0  0  0  0  0
   -2.8631    2.0568   -1.3431 O   0  0  0  0  0
   -3.0205   -4.4705   -0.9394 O   0  0  0  0  0
   -1.9454   -2.6386   -3.0479 O   0  0  0  0  0
    5.1068    2.5378   -5.0339 O   0  0  0  0  0
   -2.7257    1.3681   -0.0655 S   0  0  0  0  0
  1  2  1  0  0  0
  3 10  1  0  0  0
  4 12  1  0  0  0
  5  8  1  0  0  0
  6 11  1  0  0  0
  7  9  1  0  0  0
  7 20  1  0  0  0
  8 21  1  0  0  0
  9 22  1  0  0  0
 10 27  1  0  0  0
 11 28  1  0  0  0
 13 16  1  0  0  0
 13 17  1  0  0  0
 14 18  1  0  0  0
 14 20  1  0  0  0
 15 19  1  0  0  0
 15 20  1  0  0  0
 16 27  1  0  0  0
 17 28  1  0  0  0
 18 29  1  0  0  0
 19 29  1  0  0  0
 22 23  1  0  0  0
 30 12  1  0  0  0
 30 21  1  0  0  0
  1  7  2  0  0  0
  2  8  2  0  0  0
  3  4  2  0  0  0
  5  9  2  0  0  0
  6 12  2  0  0  0
 10 11  2  0  0  0
 22 24  2  0  0  0
 30 25  2  0  0  0
 30 26  2  0  0  0
M  CHG  2  22   1  23  -1
M  END
> <rmsd>
0.711330533

$$$$
ZINC01869231


 30 31  0  0  0  0  0  0  0  0999 V2000
    2.5314    1.2261    1.1688 C   0  0  0  0  0
   -3.0481   -1.0124   -1.6708 C   0  0  0  0  0
   -2.5200   -1.0735    0.6860 C   0  0  0  0  0
    1.1712    1.5165    1.2753 C   0  0  0  0  0
   -3.4966   -2.3315   -1.6045 C   0  0  0  0  0
   -2.9685   -2.3926    0.7523 C   0  0  0  0  0
    3.0000    0.4638    0.0988 C   0  0  0  0  0
    0.7484    0.2824   -0.7581 C   0  0  0  0  0
   -2.5597   -0.3834   -0.5256 C   0  0  0  0  0
   -3.4568   -3.0216   -0.3930 C   0  0  0  0  0
    0.2798    1.0447    0.3119 C   0  0  0  0  0
    2.1085   -0.0080   -0.8647 C   0  0  0  0  0
   -6.1326    2.9660    1.3569 C   0  0  0  0  0
   -4.7236    2.4171    3.3730 C   0  0  0  0  0
   -5.2275    1.5201   -3.6065 C   0  0  0  0  0
   -4.6700    3.8376   -2.7880 C   0  0  0  0  0
   -4.4195   -5.0179   -1.5102 C   0  0  0  0  0
   -3.8602   -5.0857    0.9252 C   0  0  0  0  0
   -2.0733    1.0474   -0.5976 C   0  0  0  0  0
   -4.7221    2.8444    1.9131 C   0  0  0  0  0
   -4.3392    2.3557   -2.6974 C   0  0  0  0  0
   -1.0724    1.3333    0.4178 N   0  0  0  0  0
   -3.9103   -4.3553   -0.3259 N   0  0  0  0  0
    2.5867   -0.7856   -1.9528 N   0  0  0  0  0
    3.8139   -1.0359   -2.0277 O   0  0  0  0  0
    1.7689   -1.2010   -2.8088 O   0  0  0  0  0
   -2.8630    3.7064   -0.3528 O   0  0  0  0  0
   -4.0001    1.8944    1.1498 O   0  0  0  0  0
   -4.5030    1.9221   -1.3585 O   0  0  0  0  0
   -3.3489    2.2862   -0.2807 P   0  0  0  0  0
  1  7  1  0  0  0
  2  9  1  0  0  0
  3  6  1  0  0  0
  4 11  1  0  0  0
  5 10  1  0  0  0
  8 12  1  0  0  0
 10 23  1  0  0  0
 11 22  1  0  0  0
 12 24  1  0  0  0
 13 20  1  0  0  0
 14 20  1  0  0  0
 15 21  1  0  0  0
 16 21  1  0  0  0
 17 23  1  0  0  0
 18 23  1  0  0  0
 19  9  1  0  0  0
 19 22  1  0  0  0
 19 30  1  0  0  0
 20 28  1  0  0  0
 21 29  1  0  0  0
 24 25  1  0  0  0
 30 28  1  0  0  0
 30 29  1  0  0  0
  1  4  2  0  0  0
  2  5  2  0  0  0
  3  9  2  0  0  0
  6 10  2  0  0  0
  7 12  2  0  0  0
  8 11  2  0  0  0
 24 26  2  0  0  0
 30 27  2  0  0  0
M  CHG  2  24   1  25  -1
M  END
> <rmsd>
0.534481406

$$$$
ZINC13585975


 29 31  0  0  0  0  0  0  0  0999 V2000
    1.0424   -5.5539    1.8514 C   0  0  0  0  0
    0.4330   -4.7049    2.7752 C   0  0  0  0  0
    0.3560   -5.9395    0.6999 C   0  0  0  0  0
    1.6614    2.5850   -1.4236 C   0  0  0  0  0
    0.5127    2.6159   -0.6330 C   0  0  0  0  0
    2.2933    1.3700   -1.6885 C   0  0  0  0  0
   -0.8628   -4.2415    2.5476 C   0  0  0  0  0
   -0.9397   -5.4760    0.4722 C   0  0  0  0  0
    0.6279    0.2167   -0.3721 C   0  0  0  0  0
   -2.9134   -1.1735   -1.4340 C   0  0  0  0  0
   -0.0040    1.4318   -0.1072 C   0  0  0  0  0
    1.7766    0.1859   -1.1627 C   0  0  0  0  0
   -1.5492   -4.6270    1.3960 C   0  0  0  0  0
   -2.8680   -0.4488   -0.2175 C   0  0  0  0  0
   -3.0339   -2.5078   -1.1137 C   0  0  0  0  0
   -2.9618   -1.3624    0.8092 C   0  0  0  0  0
   -3.1224   -3.6837   -2.0049 C   0  0  0  0  0
   -2.9635   -1.1463    2.2728 C   0  0  0  0  0
   -3.0618   -2.6107    0.2527 N   0  0  0  0  0
   -1.1797    1.4638    0.7023 N   0  0  0  0  0
    2.4196   -1.0506   -1.4336 N   0  0  0  0  0
    3.4513   -1.0559   -2.1480 O   0  0  0  0  0
    1.9393   -2.1046   -0.9509 O   0  0  0  0  0
   -3.8686   -4.9689    0.2019 O   0  0  0  0  0
   -3.7593   -3.7349    2.4240 O   0  0  0  0  0
   -3.7487    1.7367    0.8657 O   0  0  0  0  0
   -2.6684    1.8695   -1.3958 O   0  0  0  0  0
   -3.1966   -4.0373    1.1064 S   0  0  0  0  0
   -2.7168    1.3075   -0.0597 S   0  0  0  0  0
  1  2  1  0  0  0
  3  8  1  0  0  0
  4  6  1  0  0  0
  5 11  1  0  0  0
  7 13  1  0  0  0
  9 12  1  0  0  0
 10 14  1  0  0  0
 11 20  1  0  0  0
 12 21  1  0  0  0
 15 19  1  0  0  0
 16 19  1  0  0  0
 17 15  1  0  0  0
 18 16  1  0  0  0
 21 22  1  0  0  0
 28 13  1  0  0  0
 28 19  1  0  0  0
 29 14  1  0  0  0
 29 20  1  0  0  0
  1  3  2  0  0  0
  2  7  2  0  0  0
  4  5  2  0  0  0
  6 12  2  0  0  0
  8 13  2  0  0  0
  9 11  2  0  0  0
 10 15  2  0  0  0
 14 16  2  0  0  0
 21 23  2  0  0  0
 28 24  2  0  0  0
 28 25  2  0  0  0
 29 26  2  0  0  0
 29 27  2  0  0  0
M  CHG  2  21   1  22  -1
M  END
> <rmsd>
0.553254128

$$$$
ZINC12580677


 30 31  0  0  0  0  0  0  0  0999 V2000
   -4.3329   -2.4070    0.6820 C   0  0  0  0  0
   -3.7840   -3.3474   -0.1898 C   0  0  0  0  0
   -4.1142   -1.0461    0.4677 C   0  0  0  0  0
   -3.0164   -2.9270   -1.2759 C   0  0  0  0  0
    1.5465   -2.4789    1.8434 C   0  0  0  0  0
    2.2032   -1.3354   -0.1808 C   0  0  0  0  0
    3.4342   -3.2763    0.5637 C   0  0  0  0  0
    1.3551   -1.4508    0.9205 C   0  0  0  0  0
   -3.3465   -0.6257   -0.6185 C   0  0  0  0  0
    2.5861   -3.3917    1.6651 C   0  0  0  0  0
    3.2428   -2.2481   -0.3593 C   0  0  0  0  0
   -2.7976   -1.5660   -1.4902 C   0  0  0  0  0
    0.2478   -0.4783    1.1107 C   0  0  0  0  0
   -3.6247    1.8047   -0.0203 C   0  0  0  0  0
   -0.6867    2.6706   -0.3122 C   0  0  0  0  0
   -3.1693    3.1485   -0.5777 C   0  0  0  0  0
   -1.8350    3.6181   -0.0072 C   0  0  0  0  0
   -3.1423    0.7620   -0.8063 N   0  0  0  0  0
    0.4474    0.7724    0.5578 N   0  0  0  0  0
   -0.5457    1.7138    0.6771 N   0  0  0  0  0
    2.7812   -4.4380    2.6051 N   0  0  0  0  0
    4.1063   -2.1304   -1.4805 N   0  0  0  0  0
    2.0073   -4.5236    3.5889 O   0  0  0  0  0
    3.9166   -1.1982   -2.2986 O   0  0  0  0  0
   -0.7639   -0.8283    1.7133 O   0  0  0  0  0
   -4.3181    1.7176    0.9878 O   0  0  0  0  0
    0.0142    2.7593   -1.3168 O   0  0  0  0  0
    3.7220   -5.2488    2.4259 O   0  0  0  0  0
    5.0355   -2.9616   -1.6222 O   0  0  0  0  0
   -1.8406   -1.0888   -2.8471 Cl  0  0  0  0  0
  1  2  1  0  0  0
  3  9  1  0  0  0
  4 12  1  0  0  0
  5  8  1  0  0  0
  6 11  1  0  0  0
  7 10  1  0  0  0
  8 13  1  0  0  0
  9 18  1  0  0  0
 10 21  1  0  0  0
 11 22  1  0  0  0
 12 30  1  0  0  0
 13 19  1  0  0  0
 14 18  1  0  0  0
 15 20  1  0  0  0
 16 14  1  0  0  0
 16 17  1  0  0  0
 17 15  1  0  0  0
 19 20  1  0  0  0
 21 23  1  0  0  0
 22 24  1  0  0  0
  1  3  2  0  0  0
  2  4  2  0  0  0
  5 10  2  0  0  0
  6  8  2  0  0  0
  7 11  2  0  0  0
  9 12  2  0  0  0
 13 25  2  0  0  0
 14 26  2  0  0  0
 15 27  2  0  0  0
 21 28  2  0  0  0
 22 29  2  0  0  0
M  CHG  4  21   1  22   1  23  -1  24  -1
M  END
> <rmsd>
0.475800633

$$$$
ZINC20059815


 30 32  0  0  0  0  0  0  0  0999 V2000
   -3.4265   -2.0252    0.8664 C   0  0  0  0  0
   -3.4443   -1.5632   -1.5050 C   0  0  0  0  0
   -4.7228   -2.5323    0.7774 C   0  0  0  0  0
   -4.7406   -2.0703   -1.5940 C   0  0  0  0  0
   -2.7871   -1.5406   -0.2748 C   0  0  0  0  0
   -5.3799   -2.5548   -0.4528 C   0  0  0  0  0
    1.4597    0.7822   -1.8489 C   0  0  0  0  0
    0.7541    1.7949   -2.4465 C   0  0  0  0  0
    0.0057    1.7084   -0.4710 C   0  0  0  0  0
    2.4574    0.0479   -2.5723 C   0  0  0  0  0
    1.9877    1.3878   -4.4681 C   0  0  0  0  0
   -3.0170    2.4521    0.2849 C   0  0  0  0  0
   -1.7934    3.1844    2.4211 C   0  0  0  0  0
    0.2496    3.2023   -4.4126 C   0  0  0  0  0
    1.3610   -0.1574    0.4994 C   0  0  0  0  0
   -0.6762   -1.6023    0.8188 C   0  0  0  0  0
   -1.6904    2.8814    0.9335 C   0  0  0  0  0
    0.7704   -1.5593    0.3362 C   0  0  0  0  0
   -0.1476    2.3721   -1.5981 N   0  0  0  0  0
    2.6823    0.3625   -3.8151 N   0  0  0  0  0
    0.9669    0.7350   -0.5708 N   0  0  0  0  0
    0.9949    2.1286   -3.7709 N   0  0  0  0  0
   -0.6506    1.8815    0.7014 N   0  0  0  0  0
    2.9824   -0.8240   -1.8624 O   0  0  0  0  0
   -3.5605    1.4122    0.7500 O   0  0  0  0  0
    2.2448    1.6380   -5.6486 O   0  0  0  0  0
   -3.4103    3.2081   -0.6510 O   0  0  0  0  0
    1.5375   -2.4693    1.1268 O   0  0  0  0  0
   -1.5139   -1.0437   -0.1875 O   0  0  0  0  0
   -6.9788   -3.1814   -0.5631 Cl  0  0  0  0  0
  1  5  1  0  0  0
  2  4  1  0  0  0
  3  6  1  0  0  0
  5 29  1  0  0  0
  6 30  1  0  0  0
  7 10  1  0  0  0
  7 21  1  0  0  0
  8 19  1  0  0  0
  8 22  1  0  0  0
  9 21  1  0  0  0
  9 23  1  0  0  0
 10 20  1  0  0  0
 11 20  1  0  0  0
 11 22  1  0  0  0
 12 25  1  0  0  0
 13 17  1  0  0  0
 14 22  1  0  0  0
 15 18  1  0  0  0
 15 21  1  0  0  0
 16 18  1  0  0  0
 16 29  1  0  0  0
 17 12  1  0  0  0
 17 23  1  0  0  0
 18 28  1  0  0  0
  1  3  2  0  0  0
  2  5  2  0  0  0
  4  6  2  0  0  0
  7  8  2  0  0  0
  9 19  2  0  0  0
 10 24  2  0  0  0
 11 26  2  0  0  0
 12 27  2  0  0  0
M  CHG  2  24  -1  25  -1
M  END
> <rmsd>
0.56923759

$$$$
ZINC32962197


 29 31  0  0  0  0  0  0  0  0999 V2000
   -2.8965   -2.2885   -1.7926 C   0  0  0  0  0
    0.8553    2.5087   -2.5868 C   0  0  0  0  0
   -0.1173    2.4908   -1.5873 C   0  0  0  0  0
   -2.7406   -0.9202   -1.5714 C   0  0  0  0  0
   -3.2894   -3.1238   -0.7468 C   0  0  0  0  0
    0.8551    0.4752   -0.6770 C   0  0  0  0  0
    1.8278    0.4930   -1.6766 C   0  0  0  0  0
   -3.3703   -1.2224    0.7415 C   0  0  0  0  0
    1.8279    1.5098   -2.6315 C   0  0  0  0  0
   -0.1175    1.4740   -0.6324 C   0  0  0  0  0
   -2.9774   -0.3871   -0.3044 C   0  0  0  0  0
   -3.5262   -2.5908    0.5202 C   0  0  0  0  0
    2.8448   -0.5750   -1.7011 C   0  0  0  0  0
    2.4730    3.9594   -5.7966 C   0  0  0  0  0
    3.8381    4.1889   -5.1446 C   0  0  0  0  0
    2.3628    2.6733   -6.6183 C   0  0  0  0  0
    3.9373    3.7596   -3.6809 C   0  0  0  0  0
    1.7209    1.4925   -5.8900 C   0  0  0  0  0
    4.0671    2.2533   -3.4666 C   0  0  0  0  0
    2.6344    0.7895   -4.8885 C   0  0  0  0  0
   -3.6221   -0.6434    2.0991 C   0  0  0  0  0
    2.7944    1.5457   -3.6421 N   0  0  0  0  0
   -1.1135    1.4560    0.3904 N   0  0  0  0  0
    2.6003   -1.6440   -2.3737 O   0  0  0  0  0
    3.9394   -0.3993   -1.0488 O   0  0  0  0  0
   -3.5976    1.7250    1.0669 O   0  0  0  0  0
   -2.9737    2.0031   -1.3482 O   0  0  0  0  0
   -2.7713    1.3546   -0.0669 S   0  0  0  0  0
   -4.0057   -3.6608    1.7877 Cl  0  0  0  0  0
  1  4  1  0  0  0
  2  9  1  0  0  0
  3 10  1  0  0  0
  5 12  1  0  0  0
  6  7  1  0  0  0
  7 13  1  0  0  0
  8 11  1  0  0  0
  9 22  1  0  0  0
 10 23  1  0  0  0
 12 29  1  0  0  0
 13 24  1  0  0  0
 14 15  1  0  0  0
 14 16  1  0  0  0
 15 17  1  0  0  0
 16 18  1  0  0  0
 17 19  1  0  0  0
 18 20  1  0  0  0
 19 22  1  0  0  0
 20 22  1  0  0  0
 21  8  1  0  0  0
 28 11  1  0  0  0
 28 23  1  0  0  0
  1  5  2  0  0  0
  2  3  2  0  0  0
  4 11  2  0  0  0
  6 10  2  0  0  0
  7  9  2  0  0  0
  8 12  2  0  0  0
 13 25  2  0  0  0
 28 26  2  0  0  0
 28 27  2  0  0  0
M  CHG  1  24  -1
M  END
> <rmsd>
0.532704473

$$$$
ZINC32962197


 29 31  0  0  0  0  0  0  0  0999 V2000
   -2.4101   -2.2168   -1.8269 C   0  0  0  0  0
    1.0074    2.8718   -2.2090 C   0  0  0  0  0
   -0.0488    2.7590   -1.3051 C   0  0  0  0  0
   -2.3841   -0.8451   -1.5756 C   0  0  0  0  0
   -2.8305   -3.1003   -0.8325 C   0  0  0  0  0
    0.9920    0.8078   -0.3322 C   0  0  0  0  0
    2.0483    0.9205   -1.2362 C   0  0  0  0  0
   -3.1986   -1.2400    0.6645 C   0  0  0  0  0
    2.0560    1.9525   -2.1747 C   0  0  0  0  0
   -0.0566    1.7270   -0.3667 C   0  0  0  0  0
   -2.7782   -0.3567   -0.3299 C   0  0  0  0  0
   -3.2247   -2.6119    0.4131 C   0  0  0  0  0
    3.1445   -0.0647   -1.1784 C   0  0  0  0  0
    2.7944    4.5056   -5.2358 C   0  0  0  0  0
    4.0711    4.8278   -4.4564 C   0  0  0  0  0
    2.8626    3.2310   -6.0797 C   0  0  0  0  0
    4.0685    4.3793   -2.9951 C   0  0  0  0  0
    2.2517    1.9900   -5.4288 C   0  0  0  0  0
    4.2968    2.8837   -2.7877 C   0  0  0  0  0
    3.1217    1.3409   -4.3549 C   0  0  0  0  0
   -3.6196   -0.7087    1.9995 C   0  0  0  0  0
    3.1057    2.0829   -3.0900 N   0  0  0  0  0
   -1.1381    1.6119    0.5582 N   0  0  0  0  0
    3.0485   -1.1362   -1.8838 O   0  0  0  0  0
    4.1569    0.1829   -0.4246 O   0  0  0  0  0
   -3.6875    1.6739    1.0027 O   0  0  0  0  0
   -2.8675    2.0464   -1.3399 O   0  0  0  0  0
   -2.7334    1.3909   -0.0533 S   0  0  0  0  0
   -3.7328   -3.7402    1.6173 Cl  0  0  0  0  0
  1  4  1  0  0  0
  2  9  1  0  0  0
  3 10  1  0  0  0
  5 12  1  0  0  0
  6  7  1  0  0  0
  7 13  1  0  0  0
  8 11  1  0  0  0
  9 22  1  0  0  0
 10 23  1  0  0  0
 12 29  1  0  0  0
 13 24  1  0  0  0
 14 15  1  0  0  0
 14 16  1  0  0  0
 15 17  1  0  0  0
 16 18  1  0  0  0
 17 19  1  0  0  0
 18 20  1  0  0  0
 19 22  1  0  0  0
 20 22  1  0  0  0
 21  8  1  0  0  0
 28 11  1  0  0  0
 28 23  1  0  0  0
  1  5  2  0  0  0
  2  3  2  0  0  0
  4 11  2  0  0  0
  6 10  2  0  0  0
  7  9  2  0  0  0
  8 12  2  0  0  0
 13 25  2  0  0  0
 28 26  2  0  0  0
 28 27  2  0  0  0
M  CHG  1  24  -1
M  END
> <rmsd>
0.715368629

$$$$
ZINC16101102


 21 22  0  0  0  0  0  0  0  0999 V2000
    1.6776    2.5950   -1.4108 C   0  0  0  0  0
    0.5297    2.6330   -0.6193 C   0  0  0  0  0
    2.2993    1.3756   -1.6798 C   0  0  0  0  0
   -3.1264   -3.1586   -0.5803 C   0  0  0  0  0
   -3.1992   -2.6179    0.7033 C   0  0  0  0  0
    0.6251    0.2323   -0.3657 C   0  0  0  0  0
   -2.8032   -0.9457   -1.4943 C   0  0  0  0  0
    0.0035    1.4516   -0.0966 C   0  0  0  0  0
    1.7730    0.1943   -1.1573 C   0  0  0  0  0
   -2.8759   -0.4049   -0.2106 C   0  0  0  0  0
   -2.9283   -2.3225   -1.6792 C   0  0  0  0  0
   -3.0739   -1.2410    0.8882 C   0  0  0  0  0
   -1.1712    1.4909    0.7138 N   0  0  0  0  0
    2.4057   -1.0467   -1.4324 N   0  0  0  0  0
    3.4368   -1.0583   -2.1475 O   0  0  0  0  0
    1.9169   -2.0982   -0.9525 O   0  0  0  0  0
   -3.7377    1.7846    0.8799 O   0  0  0  0  0
   -2.6580    1.9153   -1.3820 O   0  0  0  0  0
   -2.7101    1.3497   -0.0476 S   0  0  0  0  0
   -2.8278   -3.0560   -3.4181 Br  0  0  0  0  0
   -3.1817   -0.5732    2.6617 Br  0  0  0  0  0
  1  2  1  0  0  0
  3  9  1  0  0  0
  4 11  1  0  0  0
  5 12  1  0  0  0
  6  8  1  0  0  0
  7 10  1  0  0  0
  8 13  1  0  0  0
  9 14  1  0  0  0
 11 20  1  0  0  0
 12 21  1  0  0  0
 14 15  1  0  0  0
 19 10  1  0  0  0
 19 13  1  0  0  0
  1  3  2  0  0  0
  2  8  2  0  0  0
  4  5  2  0  0  0
  6  9  2  0  0  0
  7 11  2  0  0  0
 10 12  2  0  0  0
 14 16  2  0  0  0
 19 17  2  0  0  0
 19 18  2  0  0  0
M  CHG  2  14   1  15  -1
M  END
> <rmsd>
0.559068918

$$$$
ZINC35397617


 29 31  0  0  0  0  0  0  0  0999 V2000
   -2.4216   -2.2343   -1.8036 C   0  0  0  0  0
   -2.3859   -0.8613   -1.5602 C   0  0  0  0  0
   -2.8580   -3.1080   -0.8076 C   0  0  0  0  0
    1.0013    0.7858   -0.3139 C   0  0  0  0  0
    0.0012    2.7113   -1.2881 C   0  0  0  0  0
    2.0505    0.9109   -1.2178 C   0  0  0  0  0
   -3.2230   -1.2357    0.6750 C   0  0  0  0  0
   -0.0468    1.6990   -0.3432 C   0  0  0  0  0
   -2.7866   -0.3620   -0.3209 C   0  0  0  0  0
   -3.2587   -2.6087    0.4317 C   0  0  0  0  0
    2.0044    1.9583   -2.1237 C   0  0  0  0  0
    3.1596   -0.0579   -1.1849 C   0  0  0  0  0
    2.7510    4.5176   -5.1777 C   0  0  0  0  0
    4.0257    4.8380   -4.3944 C   0  0  0  0  0
    2.8210    3.2448   -6.0241 C   0  0  0  0  0
    4.0195    4.3863   -2.9341 C   0  0  0  0  0
    2.2083    2.0027   -5.3773 C   0  0  0  0  0
    4.2469    2.8903   -2.7293 C   0  0  0  0  0
    3.0754    1.3510   -4.3026 C   0  0  0  0  0
   -3.6510   -0.6926    2.0032 C   0  0  0  0  0
    1.0033    2.8649   -2.1823 N   0  0  0  0  0
    3.0565    2.0905   -3.0361 N   0  0  0  0  0
   -1.1360    1.5968    0.5699 N   0  0  0  0  0
    3.0725   -1.1226   -1.9031 O   0  0  0  0  0
    4.1782    0.1931   -0.4387 O   0  0  0  0  0
   -3.6912    1.6845    0.9904 O   0  0  0  0  0
   -2.8450    2.0356   -1.3463 O   0  0  0  0  0
   -2.7293    1.3868   -0.0544 S   0  0  0  0  0
   -3.7869   -3.7255    1.6382 Cl  0  0  0  0  0
  1  2  1  0  0  0
  3 10  1  0  0  0
  4  8  1  0  0  0
  5 21  1  0  0  0
  6 11  1  0  0  0
  6 12  1  0  0  0
  7  9  1  0  0  0
  8 23  1  0  0  0
 10 29  1  0  0  0
 11 22  1  0  0  0
 12 24  1  0  0  0
 13 14  1  0  0  0
 13 15  1  0  0  0
 14 16  1  0  0  0
 15 17  1  0  0  0
 16 18  1  0  0  0
 17 19  1  0  0  0
 18 22  1  0  0  0
 19 22  1  0  0  0
 20  7  1  0  0  0
 28  9  1  0  0  0
 28 23  1  0  0  0
  1  3  2  0  0  0
  2  9  2  0  0  0
  4  6  2  0  0  0
  5  8  2  0  0  0
  7 10  2  0  0  0
 11 21  2  0  0  0
 12 25  2  0  0  0
 28 26  2  0  0  0
 28 27  2  0  0  0
M  CHG  1  24  -1
M  END
> <rmsd>
0.697425365

$$$$
ZINC35397617


 29 31  0  0  0  0  0  0  0  0999 V2000
   -2.9050   -2.3036   -1.7710 C   0  0  0  0  0
   -2.7409   -0.9349   -1.5576 C   0  0  0  0  0
   -3.3123   -3.1289   -0.7228 C   0  0  0  0  0
    0.8651    0.4551   -0.6608 C   0  0  0  0  0
   -0.0704    2.4420   -1.5740 C   0  0  0  0  0
    1.8315    0.4872   -1.6599 C   0  0  0  0  0
   -3.3914   -1.2170    0.7520 C   0  0  0  0  0
   -0.1076    1.4474   -0.6100 C   0  0  0  0  0
   -2.9841   -0.3916   -0.2961 C   0  0  0  0  0
   -3.5555   -2.5856    0.5387 C   0  0  0  0  0
    1.7818    1.5245   -2.5771 C   0  0  0  0  0
    2.8608   -0.5652   -1.7117 C   0  0  0  0  0
    2.4343    3.9824   -5.7342 C   0  0  0  0  0
    3.7977    4.2106   -5.0783 C   0  0  0  0  0
    2.3264    2.6984   -6.5596 C   0  0  0  0  0
    3.8933    3.7775   -3.6155 C   0  0  0  0  0
    1.6829    1.5158   -5.8359 C   0  0  0  0  0
    4.0229    2.2707   -3.4047 C   0  0  0  0  0
    2.5940    0.8103   -4.8339 C   0  0  0  0  0
   -3.6500   -0.6268    2.1037 C   0  0  0  0  0
    0.8525    2.5063   -2.5598 N   0  0  0  0  0
    2.7509    1.5633   -3.5851 N   0  0  0  0  0
   -1.1112    1.4415    0.4016 N   0  0  0  0  0
    2.6250   -1.6280   -2.3987 O   0  0  0  0  0
    3.9611   -0.3866   -1.0676 O   0  0  0  0  0
   -3.6014    1.7344    1.0548 O   0  0  0  0  0
   -2.9531    1.9913   -1.3563 O   0  0  0  0  0
   -2.7673    1.3502   -0.0687 S   0  0  0  0  0
   -4.0530   -3.6436    1.8094 Cl  0  0  0  0  0
  1  2  1  0  0  0
  3 10  1  0  0  0
  4  8  1  0  0  0
  5 21  1  0  0  0
  6 11  1  0  0  0
  6 12  1  0  0  0
  7  9  1  0  0  0
  8 23  1  0  0  0
 10 29  1  0  0  0
 11 22  1  0  0  0
 12 24  1  0  0  0
 13 14  1  0  0  0
 13 15  1  0  0  0
 14 16  1  0  0  0
 15 17  1  0  0  0
 16 18  1  0  0  0
 17 19  1  0  0  0
 18 22  1  0  0  0
 19 22  1  0  0  0
 20  7  1  0  0  0
 28  9  1  0  0  0
 28 23  1  0  0  0
  1  3  2  0  0  0
  2  9  2  0  0  0
  4  6  2  0  0  0
  5  8  2  0  0  0
  7 10  2  0  0  0
 11 21  2  0  0  0
 12 25  2  0  0  0
 28 26  2  0  0  0
 28 27  2  0  0  0
M  CHG  1  24  -1
M  END
> <rmsd>
0.517088175

$$$$
ZINC61228661


 32 34  0  0  0  0  0  0  0  0999 V2000
   -4.9743   -1.1519    0.4225 C   0  0  0  0  0
   -2.7429   -2.0761    0.3626 C   0  0  0  0  0
   -5.4160   -2.1628   -0.4311 C   0  0  0  0  0
   -3.1846   -3.0871   -0.4911 C   0  0  0  0  0
   -2.2167    3.0075    0.0080 C   0  0  0  0  0
    2.5749    0.3642   -0.3951 C   0  0  0  0  0
    3.9611   -0.8547    1.1637 C   0  0  0  0  0
   -3.6172    3.0554    0.1427 C   0  0  0  0  0
    1.7948    0.8304    0.6631 C   0  0  0  0  0
   -3.6378   -1.1085    0.8193 C   0  0  0  0  0
   -4.5212   -3.1303   -0.8879 C   0  0  0  0  0
    2.0978    0.4541    1.9715 C   0  0  0  0  0
    3.6580   -0.4784   -0.1447 C   0  0  0  0  0
    3.1810   -0.3884    2.2220 C   0  0  0  0  0
   -1.8554    1.8211    0.5983 C   0  0  0  0  0
    0.6578    1.7185    0.3665 C   0  0  0  0  0
    1.2568    0.9579    3.1038 C   0  0  0  0  0
   -5.5716   -3.6214   -3.1242 C   0  0  0  0  0
   -6.1178   -5.0634   -1.1345 C   0  0  0  0  0
   -3.9006   -5.2393   -2.2454 C   0  0  0  0  0
   -3.1660   -0.0280    1.7326 C   0  0  0  0  0
   -5.0079   -4.2447   -1.8289 C   0  0  0  0  0
   -4.1119    1.9845    0.7692 N   0  0  0  0  0
   -3.0162    1.2525    1.0333 N   0  0  0  0  0
   -0.6260    1.2430    0.7659 N   0  0  0  0  0
    4.4520   -0.9532   -1.2222 N   0  0  0  0  0
    3.5103   -0.7864    3.5476 N   0  0  0  0  0
    4.1620   -0.6028   -2.3915 O   0  0  0  0  0
    4.3069   -0.0816    4.2109 O   0  0  0  0  0
    0.8249    2.7856   -0.2205 O   0  0  0  0  0
    5.4220   -1.7099   -0.9752 O   0  0  0  0  0
    2.9936   -1.8295    4.0125 O   0  0  0  0  0
  1 10  1  0  0  0
  2  4  1  0  0  0
  3 11  1  0  0  0
  5  8  1  0  0  0
  6 13  1  0  0  0
  7 14  1  0  0  0
  9 12  1  0  0  0
  9 16  1  0  0  0
 13 26  1  0  0  0
 14 27  1  0  0  0
 15 24  1  0  0  0
 15 25  1  0  0  0
 16 25  1  0  0  0
 17 12  1  0  0  0
 18 22  1  0  0  0
 19 22  1  0  0  0
 20 22  1  0  0  0
 21 10  1  0  0  0
 21 24  1  0  0  0
 22 11  1  0  0  0
 24 23  1  0  0  0
 26 28  1  0  0  0
 27 29  1  0  0  0
  1  3  2  0  0  0
  2 10  2  0  0  0
  4 11  2  0  0  0
  5 15  2  0  0  0
  6  9  2  0  0  0
  7 13  2  0  0  0
  8 23  2  0  0  0
 12 14  2  0  0  0
 16 30  2  0  0  0
 26 31  2  0  0  0
 27 32  2  0  0  0
M  CHG  4  26   1  27   1  28  -1  29  -1
M  END
> <rmsd>
0.61347568

$$$$
ZINC16892337


 31 33  0  0  0  0  0  0  0  0999 V2000
   -5.1759    1.3245   -4.3265 C   0  0  0  0  0
   -4.1810    0.3831   -4.0627 C   0  0  0  0  0
   -5.3724    2.3949   -3.4539 C   0  0  0  0  0
   -3.3200   -2.3463   -0.7771 C   0  0  0  0  0
   -2.3624   -1.8500    0.1074 C   0  0  0  0  0
   -3.3827    0.5121   -2.9262 C   0  0  0  0  0
   -4.5740    2.5238   -2.3174 C   0  0  0  0  0
   -4.4524   -1.5886   -1.0761 C   0  0  0  0  0
   -2.5371   -0.5960    0.6928 C   0  0  0  0  0
    2.4329    0.7748    1.8937 C   0  0  0  0  0
    3.1161    0.1700    0.8387 C   0  0  0  0  0
    1.1606    0.4029   -0.5610 C   0  0  0  0  0
   -3.5791    1.5825   -2.0536 C   0  0  0  0  0
   -4.6271   -0.3347   -0.4907 C   0  0  0  0  0
   -3.6695    0.1616    0.3938 C   0  0  0  0  0
    0.4774    1.0076    0.4941 C   0  0  0  0  0
    1.1134    1.1936    1.7215 C   0  0  0  0  0
    2.4799   -0.0158   -0.3887 C   0  0  0  0  0
   -2.7468    1.7166   -0.8686 C   0  0  0  0  0
   -5.8325    0.4479   -0.8213 C   0  0  0  0  0
   -3.8269    1.4221    0.9939 N   0  0  0  0  0
   -1.5023    1.2750   -0.8474 N   0  0  0  0  0
   -3.3013    2.3001    0.2727 N   0  0  0  0  0
   -0.8112    1.4117    0.3125 N   0  0  0  0  0
   -6.6868   -0.0526   -1.6430 O   0  0  0  0  0
    3.9704    0.3558   -2.4073 O   0  0  0  0  0
   -5.9867    1.6032   -0.2768 O   0  0  0  0  0
    4.2972   -1.6976   -1.0866 O   0  0  0  0  0
    2.2783   -1.4500   -2.4736 O   0  0  0  0  0
    0.4636    1.7822    2.7649 O   0  0  0  0  0
    3.3363   -0.7724   -1.7091 S   0  0  0  0  0
  1  2  1  0  0  0
  3  7  1  0  0  0
  4  5  1  0  0  0
  6 13  1  0  0  0
  8 14  1  0  0  0
  9 15  1  0  0  0
 10 17  1  0  0  0
 11 18  1  0  0  0
 12 16  1  0  0  0
 13 19  1  0  0  0
 14 20  1  0  0  0
 15 21  1  0  0  0
 16 24  1  0  0  0
 17 30  1  0  0  0
 19 23  1  0  0  0
 20 25  1  0  0  0
 24 22  1  0  0  0
 31 18  1  0  0  0
 31 26  1  0  0  0
  1  3  2  0  0  0
  2  6  2  0  0  0
  4  8  2  0  0  0
  5  9  2  0  0  0
  7 13  2  0  0  0
 10 11  2  0  0  0
 12 18  2  0  0  0
 14 15  2  0  0  0
 16 17  2  0  0  0
 19 22  2  0  0  0
 20 27  2  0  0  0
 21 23  2  0  0  0
 31 28  2  0  0  0
 31 29  2  0  0  0
M  CHG  2  25  -1  26  -1
M  END
> <rmsd>
0.391658127

$$$$
ZINC38971395


 31 34  0  0  0  0  0  0  0  0999 V2000
    2.0539    3.0159   -1.9294 C   0  0  0  0  0
    2.8885    1.9015   -2.0128 C   0  0  0  0  0
    0.8500    2.9347   -1.2295 C   0  0  0  0  0
   -4.7627    7.6559    2.0877 C   0  0  0  0  0
   -3.0531    7.2211    3.7386 C   0  0  0  0  0
   -4.8738    6.2873    1.8423 C   0  0  0  0  0
   -3.1643    5.8525    3.4931 C   0  0  0  0  0
    1.3155    0.6247   -0.6964 C   0  0  0  0  0
    2.5195    0.7059   -1.3963 C   0  0  0  0  0
    0.4808    1.7392   -0.6130 C   0  0  0  0  0
   -3.8523    8.1228    3.0359 C   0  0  0  0  0
   -4.0746    5.3857    2.5450 C   0  0  0  0  0
   -5.0021   -2.0784    0.3192 C   0  0  0  0  0
   -4.5180   -2.2185   -1.0320 C   0  0  0  0  0
   -4.7444   -1.0088    1.0799 C   0  0  0  0  0
   -3.7197   -1.3189   -1.6180 C   0  0  0  0  0
   -3.9237    0.0882    0.5187 C   0  0  0  0  0
   -3.3240   -0.1298   -0.8395 C   0  0  0  0  0
   -2.9937    2.1945    0.5870 C   0  0  0  0  0
    3.4003   -0.4697   -1.4848 C   0  0  0  0  0
   -2.0078    1.8891   -0.5133 C   0  0  0  0  0
   -3.7363    1.1949    1.1653 N   0  0  0  0  0
   -3.1282    3.3979    1.0428 N   0  0  0  0  0
   -2.4701    0.7200   -1.2792 N   0  0  0  0  0
   -0.7165    1.6590    0.0832 N   0  0  0  0  0
    3.0367   -1.5617   -0.9066 O   0  0  0  0  0
    4.5060   -0.3682   -2.1372 O   0  0  0  0  0
   -3.7853    3.0025    3.4602 O   0  0  0  0  0
   -5.5512    3.4193    1.7127 O   0  0  0  0  0
   -3.7447    9.4371    3.2706 F   0  0  0  0  0
   -4.2146    3.6477    2.2325 S   0  0  0  0  0
  1  2  1  0  0  0
  3 10  1  0  0  0
  4 11  1  0  0  0
  5  7  1  0  0  0
  6 12  1  0  0  0
  8  9  1  0  0  0
  9 20  1  0  0  0
 10 25  1  0  0  0
 11 30  1  0  0  0
 13 14  1  0  0  0
 15 17  1  0  0  0
 16 18  1  0  0  0
 17 18  1  0  0  0
 19 22  1  0  0  0
 20 26  1  0  0  0
 21 19  1  0  0  0
 21 24  1  0  0  0
 21 25  1  0  0  0
 31 12  1  0  0  0
 31 23  1  0  0  0
  1  3  2  0  0  0
  2  9  2  0  0  0
  4  6  2  0  0  0
  5 11  2  0  0  0
  7 12  2  0  0  0
  8 10  2  0  0  0
 13 15  2  0  0  0
 14 16  2  0  0  0
 17 22  2  0  0  0
 18 24  2  0  0  0
 19 23  2  0  0  0
 20 27  2  0  0  0
 31 28  2  0  0  0
 31 29  2  0  0  0
M  CHG  2  24   1  26  -1
M  END
> <rmsd>
0.555610657

$$$$
ZINC64683340


 31 34  0  0  0  0  0  0  0  0999 V2000
   -7.5239    2.8450   -0.2808 C   0  0  0  0  0
   -8.1708    3.9919   -0.7717 C   0  0  0  0  0
   -6.1432    2.8026    0.0254 C   0  0  0  0  0
   -7.3535    5.1340   -0.9499 C   0  0  0  0  0
   -5.8810    5.0888   -0.6231 C   0  0  0  0  0
   -5.2838    3.9034   -0.1311 C   0  0  0  0  0
   -3.3123   -2.2787    0.7878 C   0  0  0  0  0
   -4.5488   -2.1719    0.0268 C   0  0  0  0  0
   -2.1082   -2.1404    0.2077 C   0  0  0  0  0
   -4.5841   -1.9309   -1.2954 C   0  0  0  0  0
   -2.0523   -1.8815   -1.1978 C   0  0  0  0  0
   -1.0741   -1.6908   -2.0950 C   0  0  0  0  0
   -3.2957   -1.7708   -1.9839 C   0  0  0  0  0
   -3.2241    2.7018    0.6800 C   0  0  0  0  0
    2.4917   -0.2856   -1.3775 C   0  0  0  0  0
   -0.4254    1.4879   -0.5446 C   0  0  0  0  0
   -1.6359   -1.4534   -3.4740 C   0  0  0  0  0
    0.3962   -1.6914   -1.8743 C   0  0  0  0  0
   -1.7593    3.0329    0.8908 C   0  0  0  0  0
    0.9666   -0.2941   -1.5889 C   0  0  0  0  0
   -7.7542    6.3322   -1.4043 N   0  0  0  0  0
   -5.2568    6.2559   -0.8498 N   0  0  0  0  0
   -3.0852   -1.5385   -3.2214 N   0  0  0  0  0
   -3.9089    3.8112    0.1912 N   0  0  0  0  0
   -0.9539    1.8503    0.6914 N   0  0  0  0  0
    0.3072    0.3093   -0.4510 N   0  0  0  0  0
    3.1507   -1.1694   -1.9922 O   0  0  0  0  0
   -3.6831    1.5885    0.9149 O   0  0  0  0  0
    2.9047    0.6192   -0.5946 O   0  0  0  0  0
   -0.5846    2.1265   -1.5841 O   0  0  0  0  0
   -6.4098    7.3070   -1.4185 S   0  0  0  0  0
  1  3  1  0  0  0
  2  4  1  0  0  0
  4  5  1  0  0  0
  5  6  1  0  0  0
  6 24  1  0  0  0
  7  8  1  0  0  0
  9 11  1  0  0  0
 10 13  1  0  0  0
 11 13  1  0  0  0
 14 24  1  0  0  0
 15 27  1  0  0  0
 16 25  1  0  0  0
 16 26  1  0  0  0
 17 12  1  0  0  0
 17 23  1  0  0  0
 18 12  1  0  0  0
 18 20  1  0  0  0
 19 14  1  0  0  0
 19 25  1  0  0  0
 20 15  1  0  0  0
 20 26  1  0  0  0
 21 31  1  0  0  0
 22 31  1  0  0  0
  1  2  2  0  0  0
  3  6  2  0  0  0
  4 21  2  0  0  0
  5 22  2  0  0  0
  7  9  2  0  0  0
  8 10  2  0  0  0
 11 12  2  0  0  0
 13 23  2  0  0  0
 14 28  2  0  0  0
 15 29  2  0  0  0
 16 30  2  0  0  0
M  CHG  2  23   1  27  -1
M  END
> <rmsd>
0.561456084

$$$$
ZINC12857667


 31 33  0  0  0  0  0  0  0  0999 V2000
   -2.3488   -2.7776    0.0562 C   0  0  0  0  0
   -3.0009   -0.9883   -1.4303 C   0  0  0  0  0
   -3.6080   -2.7391    0.6552 C   0  0  0  0  0
   -4.2601   -0.9496   -0.8315 C   0  0  0  0  0
   -6.5716    4.1656   -2.4839 C   0  0  0  0  0
   -7.3201    4.0216   -0.1913 C   0  0  0  0  0
   -2.0453   -1.9022   -0.9864 C   0  0  0  0  0
   -7.6063    4.1690   -1.5486 C   0  0  0  0  0
   -5.2505    4.0146   -2.0620 C   0  0  0  0  0
   -5.9992    3.8708    0.2305 C   0  0  0  0  0
   -4.9644    3.8672   -0.7048 C   0  0  0  0  0
   -4.5636   -1.8251    0.2112 C   0  0  0  0  0
   -0.7431   -1.9423   -1.6059 C   0  0  0  0  0
    1.3453   -1.5346   -2.0319 C   0  0  0  0  0
   -0.3341    1.0388   -0.4138 C   0  0  0  0  0
   -3.0721    2.6411    0.4179 C   0  0  0  0  0
   -9.0186    4.3299   -1.9995 C   0  0  0  0  0
   -4.1636    4.0136   -3.0879 C   0  0  0  0  0
   -5.7237    3.7154    1.6914 C   0  0  0  0  0
   -6.7215   -0.8286    0.2925 C   0  0  0  0  0
    0.3373   -0.2767   -0.0820 C   0  0  0  0  0
   -1.5979    2.8808    0.6802 C   0  0  0  0  0
   -0.4007   -2.6765   -2.6402 N   0  0  0  0  0
    0.9280   -2.4172   -2.9113 N   0  0  0  0  0
    0.3256   -1.2075   -1.1904 N   0  0  0  0  0
   -3.6242    3.7144   -0.2764 N   0  0  0  0  0
   -0.8931    1.6202    0.7149 N   0  0  0  0  0
   -0.3707    1.5135   -1.5458 O   0  0  0  0  0
   -3.6431    1.6179    0.7818 O   0  0  0  0  0
   -5.7924   -1.7876    0.7954 O   0  0  0  0  0
    2.9115   -0.8895   -1.9388 S   0  0  0  0  0
  1  7  1  0  0  0
  2  4  1  0  0  0
  3 12  1  0  0  0
  5  8  1  0  0  0
  6 10  1  0  0  0
  7 13  1  0  0  0
  9 11  1  0  0  0
 11 26  1  0  0  0
 12 30  1  0  0  0
 13 25  1  0  0  0
 14 24  1  0  0  0
 14 25  1  0  0  0
 15 27  1  0  0  0
 16 26  1  0  0  0
 17  8  1  0  0  0
 18  9  1  0  0  0
 19 10  1  0  0  0
 20 30  1  0  0  0
 21 15  1  0  0  0
 21 25  1  0  0  0
 22 16  1  0  0  0
 22 27  1  0  0  0
 23 24  1  0  0  0
  1  3  2  0  0  0
  2  7  2  0  0  0
  4 12  2  0  0  0
  5  9  2  0  0  0
  6  8  2  0  0  0
 10 11  2  0  0  0
 13 23  2  0  0  0
 14 31  2  0  0  0
 15 28  2  0  0  0
 16 29  2  0  0  0
M  CHG  1  31  -1
M  END
> <rmsd>
0.498737216

$$$$
ZINC12857667


 31 33  0  0  0  0  0  0  0  0999 V2000
   -2.3528   -2.7950   -0.0230 C   0  0  0  0  0
   -2.9024   -1.1147   -1.6697 C   0  0  0  0  0
   -3.6552   -2.7352    0.4729 C   0  0  0  0  0
   -4.2048   -1.0549   -1.1739 C   0  0  0  0  0
   -7.4178    4.7999   -0.0804 C   0  0  0  0  0
   -7.1175    4.1927    2.2386 C   0  0  0  0  0
   -1.9764   -1.9847   -1.0941 C   0  0  0  0  0
   -7.9451    4.6128    1.1972 C   0  0  0  0  0
   -6.0629    4.5672   -0.3169 C   0  0  0  0  0
   -5.7627    3.9600    2.0023 C   0  0  0  0  0
   -5.2354    4.1472    0.7246 C   0  0  0  0  0
   -4.5812   -1.8652   -0.1027 C   0  0  0  0  0
   -0.6295   -2.0467   -1.6070 C   0  0  0  0  0
    1.4822   -1.6386   -1.8958 C   0  0  0  0  0
   -0.3410    1.0106   -0.5848 C   0  0  0  0  0
   -3.1614    2.7195    0.6575 C   0  0  0  0  0
   -9.3937    4.8611    1.4498 C   0  0  0  0  0
   -5.5273    4.7753   -1.6965 C   0  0  0  0  0
   -4.9009    3.5111    3.1381 C   0  0  0  0  0
   -6.7475   -0.8956   -0.2542 C   0  0  0  0  0
    0.3138   -0.2713   -0.1166 C   0  0  0  0  0
   -1.7027    2.9018    0.2849 C   0  0  0  0  0
   -0.2008   -2.8415   -2.5613 N   0  0  0  0  0
    1.1426   -2.5818   -2.7452 N   0  0  0  0  0
    0.3970   -1.2719   -1.1591 N   0  0  0  0  0
   -3.8606    3.9112    0.4852 N   0  0  0  0  0
   -0.9917    1.6560    0.4567 N   0  0  0  0  0
   -0.2933    1.4106   -1.7450 O   0  0  0  0  0
   -3.6087    1.6435    1.0411 O   0  0  0  0  0
   -5.8522   -1.8070    0.3809 O   0  0  0  0  0
    3.0306   -0.9671   -1.7243 S   0  0  0  0  0
  1  7  1  0  0  0
  2  4  1  0  0  0
  3 12  1  0  0  0
  5  8  1  0  0  0
  6 10  1  0  0  0
  7 13  1  0  0  0
  9 11  1  0  0  0
 11 26  1  0  0  0
 12 30  1  0  0  0
 13 25  1  0  0  0
 14 24  1  0  0  0
 14 25  1  0  0  0
 15 27  1  0  0  0
 16 26  1  0  0  0
 17  8  1  0  0  0
 18  9  1  0  0  0
 19 10  1  0  0  0
 20 30  1  0  0  0
 21 15  1  0  0  0
 21 25  1  0  0  0
 22 16  1  0  0  0
 22 27  1  0  0  0
 23 24  1  0  0  0
  1  3  2  0  0  0
  2  7  2  0  0  0
  4 12  2  0  0  0
  5  9  2  0  0  0
  6  8  2  0  0  0
 10 11  2  0  0  0
 13 23  2  0  0  0
 14 31  2  0  0  0
 15 28  2  0  0  0
 16 29  2  0  0  0
M  CHG  1  31  -1
M  END
> <rmsd>
0.539535046

$$$$
ZINC35397431


 29 31  0  0  0  0  0  0  0  0999 V2000
   -2.4447   -2.2686   -1.7766 C   0  0  0  0  0
   -2.8970   -3.1084   -0.7589 C   0  0  0  0  0
    1.0061    0.7842   -0.3075 C   0  0  0  0  0
   -3.2376   -1.1913    0.6715 C   0  0  0  0  0
    0.0169    2.7235   -1.2651 C   0  0  0  0  0
    2.0602    0.9161   -1.2046 C   0  0  0  0  0
   -0.0389    1.7010   -0.3318 C   0  0  0  0  0
   -2.3889   -0.8902   -1.5704 C   0  0  0  0  0
   -2.7853   -0.3515   -0.3464 C   0  0  0  0  0
   -3.2935   -2.5697    0.4652 C   0  0  0  0  0
    2.0219    1.9736   -2.0990 C   0  0  0  0  0
    3.1662   -0.0565   -1.1769 C   0  0  0  0  0
    4.3074    4.1422   -4.8859 C   0  0  0  0  0
    3.7006    3.2132   -5.9363 C   0  0  0  0  0
    5.0994    3.4012   -3.8084 C   0  0  0  0  0
    2.6153    2.2727   -5.4160 C   0  0  0  0  0
    4.2480    2.9168   -2.6333 C   0  0  0  0  0
    3.0785    1.3759   -4.2699 C   0  0  0  0  0
   -1.5601   -0.7291   -3.7937 C   0  0  0  0  0
    1.0239    2.8840   -2.1526 N   0  0  0  0  0
    3.0800    2.1128   -3.0054 N   0  0  0  0  0
   -1.1331    1.5921    0.5747 N   0  0  0  0  0
    3.0794   -1.1128   -1.9074 O   0  0  0  0  0
    4.1817    0.1830   -0.4229 O   0  0  0  0  0
   -3.6901    1.6832    0.9832 O   0  0  0  0  0
   -2.8311    2.0575   -1.3452 O   0  0  0  0  0
   -1.9437   -0.0888   -2.5785 O   0  0  0  0  0
   -2.7239    1.3941   -0.0600 S   0  0  0  0  0
   -3.8521   -3.6062    1.7203 Cl  0  0  0  0  0
  1  8  1  0  0  0
  2 10  1  0  0  0
  3  7  1  0  0  0
  4  9  1  0  0  0
  5 20  1  0  0  0
  6 11  1  0  0  0
  6 12  1  0  0  0
  7 22  1  0  0  0
  8 27  1  0  0  0
 10 29  1  0  0  0
 11 21  1  0  0  0
 12 23  1  0  0  0
 13 14  1  0  0  0
 13 15  1  0  0  0
 14 16  1  0  0  0
 15 17  1  0  0  0
 16 18  1  0  0  0
 17 21  1  0  0  0
 18 21  1  0  0  0
 19 27  1  0  0  0
 28  9  1  0  0  0
 28 22  1  0  0  0
  1  2  2  0  0  0
  3  6  2  0  0  0
  4 10  2  0  0  0
  5  7  2  0  0  0
  8  9  2  0  0  0
 11 20  2  0  0  0
 12 24  2  0  0  0
 28 25  2  0  0  0
 28 26  2  0  0  0
M  CHG  1  23  -1
M  END
> <rmsd>
0.683451056

$$$$
ZINC35397431


 29 31  0  0  0  0  0  0  0  0999 V2000
   -2.9271   -2.3329   -1.7454 C   0  0  0  0  0
   -3.3438   -3.1246   -0.6753 C   0  0  0  0  0
    0.8699    0.4579   -0.6590 C   0  0  0  0  0
   -3.4004   -1.1723    0.7469 C   0  0  0  0  0
   -0.0547    2.4582   -1.5538 C   0  0  0  0  0
    1.8414    0.4985   -1.6529 C   0  0  0  0  0
   -0.0998    1.4527   -0.6015 C   0  0  0  0  0
   -2.7470   -0.9609   -1.5694 C   0  0  0  0  0
   -2.9837   -0.3806   -0.3233 C   0  0  0  0  0
   -3.5805   -2.5443    0.5709 C   0  0  0  0  0
    1.7994    1.5466   -2.5582 C   0  0  0  0  0
    2.8676   -0.5566   -1.7117 C   0  0  0  0  0
    3.9697    3.5027   -5.5842 C   0  0  0  0  0
    3.1973    2.6128   -6.5568 C   0  0  0  0  0
    4.8013    2.7136   -4.5726 C   0  0  0  0  0
    2.0975    1.7647   -5.9209 C   0  0  0  0  0
    4.0304    2.3088   -3.3147 C   0  0  0  0  0
    2.5973    0.8465   -4.8076 C   0  0  0  0  0
   -2.1224   -0.8874   -3.8629 C   0  0  0  0  0
    0.8732    2.5310   -2.5342 N   0  0  0  0  0
    2.7745    1.5940   -3.5619 N   0  0  0  0  0
   -1.1085    1.4384    0.4050 N   0  0  0  0  0
    2.6318   -1.6104   -2.4123 O   0  0  0  0  0
    3.9652   -0.3889   -1.0603 O   0  0  0  0  0
   -3.6010    1.7316    1.0492 O   0  0  0  0  0
   -2.9400    2.0143   -1.3555 O   0  0  0  0  0
   -2.3394   -0.2069   -2.6286 O   0  0  0  0  0
   -2.7626    1.3578   -0.0746 S   0  0  0  0  0
   -4.0953   -3.5214    1.8907 Cl  0  0  0  0  0
  1  8  1  0  0  0
  2 10  1  0  0  0
  3  7  1  0  0  0
  4  9  1  0  0  0
  5 20  1  0  0  0
  6 11  1  0  0  0
  6 12  1  0  0  0
  7 22  1  0  0  0
  8 27  1  0  0  0
 10 29  1  0  0  0
 11 21  1  0  0  0
 12 23  1  0  0  0
 13 14  1  0  0  0
 13 15  1  0  0  0
 14 16  1  0  0  0
 15 17  1  0  0  0
 16 18  1  0  0  0
 17 21  1  0  0  0
 18 21  1  0  0  0
 19 27  1  0  0  0
 28  9  1  0  0  0
 28 22  1  0  0  0
  1  2  2  0  0  0
  3  6  2  0  0  0
  4 10  2  0  0  0
  5  7  2  0  0  0
  8  9  2  0  0  0
 11 20  2  0  0  0
 12 24  2  0  0  0
 28 25  2  0  0  0
 28 26  2  0  0  0
M  CHG  1  23  -1
M  END
> <rmsd>
0.505477011

$$$$
ZINC77287068


 29 31  0  0  0  0  0  0  0  0999 V2000
   -4.2082   -1.2870    0.2951 C   0  0  0  0  0
   -3.1734   -0.4839   -0.1365 C   0  0  0  0  0
   -2.5702   -2.3525   -1.1135 C   0  0  0  0  0
    3.2534    0.4297   -0.1211 C   0  0  0  0  0
    3.8039   -0.0263    1.0293 C   0  0  0  0  0
    1.2395    1.7231   -0.9649 C   0  0  0  0  0
   -3.0398    0.9547    0.2182 C   0  0  0  0  0
    3.7910   -0.0497   -1.4643 C   0  0  0  0  0
   -1.8634    1.7294   -0.3148 C   0  0  0  0  0
   -4.2486    4.9043    2.2544 C   0  0  0  0  0
    3.2210    0.2617    2.4110 C   0  0  0  0  0
    0.4722    2.3460    0.2362 C   0  0  0  0  0
    1.7202    1.9740    1.0659 C   0  0  0  0  0
    5.0435   -0.8847    1.0983 C   0  0  0  0  0
   -4.6047    3.4432    2.0319 C   0  0  0  0  0
   -2.2329   -1.0933   -0.9440 N   0  0  0  0  0
   -3.9163    1.5369    0.9798 N   0  0  0  0  0
    2.1800    1.2613   -0.1124 N   0  0  0  0  0
   -1.8593   -3.2421   -1.8562 N   0  0  0  0  0
   -0.7924    1.6749    0.5331 N   0  0  0  0  0
    3.2320   -1.0834   -1.9154 O   0  0  0  0  0
   -4.1675    5.6020    1.2044 O   0  0  0  0  0
    1.0584    1.6058   -2.1542 O   0  0  0  0  0
    4.7208    0.6535   -1.9394 O   0  0  0  0  0
   -1.9837    2.2916   -1.3915 O   0  0  0  0  0
   -4.0857    5.2383    3.4613 O   0  0  0  0  0
   -3.6028    2.8860    1.1953 O   0  0  0  0  0
   -4.0069   -2.8709   -0.3310 S   0  0  0  0  0
    1.4715    0.7813    2.4009 S   0  0  0  0  0
  1 28  1  0  0  0
  2  7  1  0  0  0
  2 16  1  0  0  0
  3 19  1  0  0  0
  3 28  1  0  0  0
  4  8  1  0  0  0
  4 18  1  0  0  0
  6 18  1  0  0  0
  7  9  1  0  0  0
  8 21  1  0  0  0
  9 20  1  0  0  0
 10 22  1  0  0  0
 11  5  1  0  0  0
 11 29  1  0  0  0
 12  6  1  0  0  0
 12 13  1  0  0  0
 12 20  1  0  0  0
 13 18  1  0  0  0
 13 29  1  0  0  0
 14  5  1  0  0  0
 15 10  1  0  0  0
 15 27  1  0  0  0
 17 27  1  0  0  0
  1  2  2  0  0  0
  3 16  2  0  0  0
  4  5  2  0  0  0
  6 23  2  0  0  0
  7 17  2  0  0  0
  8 24  2  0  0  0
  9 25  2  0  0  0
 10 26  2  0  0  0
M  CHG  2  21  -1  22  -1
M  END
> <rmsd>
0.400696188

$$$$
ZINC77287068


 29 31  0  0  0  0  0  0  0  0999 V2000
   -4.4866   -1.1682    0.4520 C   0  0  0  0  0
   -3.4003   -0.4809   -0.0476 C   0  0  0  0  0
   -3.0049   -2.4336   -0.9644 C   0  0  0  0  0
    3.0788   -0.1602   -0.2857 C   0  0  0  0  0
    3.6283   -0.6195    0.8639 C   0  0  0  0  0
    1.1599    1.2784   -1.1156 C   0  0  0  0  0
   -3.1244    0.9522    0.2414 C   0  0  0  0  0
    3.5207   -0.7390   -1.6247 C   0  0  0  0  0
   -1.9035    1.5944   -0.3629 C   0  0  0  0  0
   -3.8954    5.0724    2.1483 C   0  0  0  0  0
    3.1255   -0.2257    2.2510 C   0  0  0  0  0
    0.4970    2.0154    0.0831 C   0  0  0  0  0
    1.7364    1.5632    0.8856 C   0  0  0  0  0
    4.7871   -1.5846    0.9276 C   0  0  0  0  0
   -4.3900    3.6426    1.9997 C   0  0  0  0  0
   -2.5493   -1.2049   -0.8596 N   0  0  0  0  0
   -3.9159    1.6416    1.0066 N   0  0  0  0  0
    2.0858    0.7660   -0.2763 N   0  0  0  0  0
   -2.4052   -3.4129   -1.6922 N   0  0  0  0  0
   -0.8111    1.4751    0.4502 N   0  0  0  0  0
    2.8543   -1.7339   -2.0128 O   0  0  0  0  0
   -3.7908    5.7183    1.0676 O   0  0  0  0  0
    0.9248    1.1318   -2.2921 O   0  0  0  0  0
    4.4918   -0.1431   -2.1599 O   0  0  0  0  0
   -2.0125    2.1229   -1.4577 O   0  0  0  0  0
   -3.6583    5.4370    3.3338 O   0  0  0  0  0
   -3.4741    2.9636    1.1543 O   0  0  0  0  0
   -4.4524   -2.7872   -0.1131 S   0  0  0  0  0
    1.4308    0.4514    2.2774 S   0  0  0  0  0
  1 28  1  0  0  0
  2  7  1  0  0  0
  2 16  1  0  0  0
  3 19  1  0  0  0
  3 28  1  0  0  0
  4  8  1  0  0  0
  4 18  1  0  0  0
  6 18  1  0  0  0
  7  9  1  0  0  0
  8 21  1  0  0  0
  9 20  1  0  0  0
 10 22  1  0  0  0
 11  5  1  0  0  0
 11 29  1  0  0  0
 12  6  1  0  0  0
 12 13  1  0  0  0
 12 20  1  0  0  0
 13 18  1  0  0  0
 13 29  1  0  0  0
 14  5  1  0  0  0
 15 10  1  0  0  0
 15 27  1  0  0  0
 17 27  1  0  0  0
  1  2  2  0  0  0
  3 16  2  0  0  0
  4  5  2  0  0  0
  6 23  2  0  0  0
  7 17  2  0  0  0
  8 24  2  0  0  0
  9 25  2  0  0  0
 10 26  2  0  0  0
M  CHG  2  21  -1  22  -1
M  END
> <rmsd>
0.101456106

$$$$
ZINC77287068


 29 31  0  0  0  0  0  0  0  0999 V2000
   -2.5804   -1.2625   -0.8765 C   0  0  0  0  0
   -3.3863   -0.4808   -0.0755 C   0  0  0  0  0
   -4.5177   -2.3555    0.0481 C   0  0  0  0  0
    3.0936   -0.1539   -0.2832 C   0  0  0  0  0
    3.6385   -0.6235    0.8644 C   0  0  0  0  0
    1.1773    1.2910   -1.1079 C   0  0  0  0  0
   -3.1125    0.9497    0.2278 C   0  0  0  0  0
    3.5416   -0.7201   -1.6255 C   0  0  0  0  0
   -1.8894    1.5983   -0.3654 C   0  0  0  0  0
   -3.8943    5.0517    2.1692 C   0  0  0  0  0
    3.1297   -0.2427    2.2529 C   0  0  0  0  0
    0.5088    2.0166    0.0947 C   0  0  0  0  0
    1.7451    1.5578    0.8982 C   0  0  0  0  0
    4.7977   -1.5883    0.9241 C   0  0  0  0  0
   -4.3873    3.6231    2.0054 C   0  0  0  0  0
   -4.4978   -1.1057    0.4553 N   0  0  0  0  0
   -3.9076    1.6316    0.9960 N   0  0  0  0  0
    2.1000    0.7715   -0.2695 N   0  0  0  0  0
   -5.4794   -3.2554    0.3853 N   0  0  0  0  0
   -0.8004    1.4722    0.4512 N   0  0  0  0  0
    2.8775   -1.7118   -2.0256 O   0  0  0  0  0
   -3.7856    5.7076    1.0950 O   0  0  0  0  0
    0.9473    1.1552   -2.2867 O   0  0  0  0  0
    4.5145   -0.1187   -2.1511 O   0  0  0  0  0
   -1.9942    2.1367   -1.4557 O   0  0  0  0  0
   -3.6624    5.4055    3.3590 O   0  0  0  0  0
   -3.4674    2.9525    1.1577 O   0  0  0  0  0
   -3.2302   -2.8465   -0.9748 S   0  0  0  0  0
    1.4344    0.4330    2.2784 S   0  0  0  0  0
  1 28  1  0  0  0
  2  7  1  0  0  0
  2 16  1  0  0  0
  3 19  1  0  0  0
  3 28  1  0  0  0
  4  8  1  0  0  0
  4 18  1  0  0  0
  6 18  1  0  0  0
  7  9  1  0  0  0
  8 21  1  0  0  0
  9 20  1  0  0  0
 10 22  1  0  0  0
 11  5  1  0  0  0
 11 29  1  0  0  0
 12  6  1  0  0  0
 12 13  1  0  0  0
 12 20  1  0  0  0
 13 18  1  0  0  0
 13 29  1  0  0  0
 14  5  1  0  0  0
 15 10  1  0  0  0
 15 27  1  0  0  0
 17 27  1  0  0  0
  1  2  2  0  0  0
  3 16  2  0  0  0
  4  5  2  0  0  0
  6 23  2  0  0  0
  7 17  2  0  0  0
  8 24  2  0  0  0
  9 25  2  0  0  0
 10 26  2  0  0  0
M  CHG  2  21  -1  22  -1
M  END
> <rmsd>
0.0607087165

$$$$
ZINC77287068


 29 31  0  0  0  0  0  0  0  0999 V2000
   -2.2578   -1.1531   -0.9623 C   0  0  0  0  0
   -3.1587   -0.4812   -0.1631 C   0  0  0  0  0
   -4.1178   -2.4535   -0.1548 C   0  0  0  0  0
    3.2675    0.4353   -0.1112 C   0  0  0  0  0
    3.8132   -0.0308    1.0374 C   0  0  0  0  0
    1.2566    1.7353   -0.9522 C   0  0  0  0  0
   -3.0274    0.9542    0.2052 C   0  0  0  0  0
    3.8112   -0.0318   -1.4563 C   0  0  0  0  0
   -1.8490    1.7343   -0.3156 C   0  0  0  0  0
   -4.2471    4.8847    2.2717 C   0  0  0  0  0
    3.2241    0.2444    2.4191 C   0  0  0  0  0
    0.4837    2.3470    0.2511 C   0  0  0  0  0
    1.7284    1.9681    1.0829 C   0  0  0  0  0
    5.0529   -0.8892    1.1040 C   0  0  0  0  0
   -4.6015    3.4256    2.0344 C   0  0  0  0  0
   -4.2261   -1.2251    0.3006 N   0  0  0  0  0
   -3.9075    1.5292    0.9682 N   0  0  0  0  0
    2.1936    1.2663   -0.0998 N   0  0  0  0  0
   -5.0043   -3.4495    0.1107 N   0  0  0  0  0
   -0.7818    1.6726    0.5364 N   0  0  0  0  0
    3.2547   -1.0616   -1.9192 O   0  0  0  0  0
   -4.1618    5.5920    1.2284 O   0  0  0  0  0
    1.0808    1.6286   -2.1432 O   0  0  0  0  0
    4.7427    0.6761   -1.9210 O   0  0  0  0  0
   -1.9649    2.3061   -1.3877 O   0  0  0  0  0
   -4.0896    5.2080    3.4822 O   0  0  0  0  0
   -3.5956    2.8764    1.1972 O   0  0  0  0  0
   -2.7563   -2.7837   -1.1461 S   0  0  0  0  0
    1.4743    0.7633    2.4060 S   0  0  0  0  0
  1 28  1  0  0  0
  2  7  1  0  0  0
  2 16  1  0  0  0
  3 19  1  0  0  0
  3 28  1  0  0  0
  4  8  1  0  0  0
  4 18  1  0  0  0
  6 18  1  0  0  0
  7  9  1  0  0  0
  8 21  1  0  0  0
  9 20  1  0  0  0
 10 22  1  0  0  0
 11  5  1  0  0  0
 11 29  1  0  0  0
 12  6  1  0  0  0
 12 13  1  0  0  0
 12 20  1  0  0  0
 13 18  1  0  0  0
 13 29  1  0  0  0
 14  5  1  0  0  0
 15 10  1  0  0  0
 15 27  1  0  0  0
 17 27  1  0  0  0
  1  2  2  0  0  0
  3 16  2  0  0  0
  4  5  2  0  0  0
  6 23  2  0  0  0
  7 17  2  0  0  0
  8 24  2  0  0  0
  9 25  2  0  0  0
 10 26  2  0  0  0
M  CHG  2  21  -1  22  -1
M  END
> <rmsd>
0.359095067

$$$$
ZINC14478355


 33 37  0  0  0  0  0  0  0  0999 V2000
   -4.0807   -3.2638    0.0375 C   0  0  0  0  0
    1.1079   -2.0491    2.4844 C   0  0  0  0  0
   -3.7292   -2.3888    1.0654 C   0  0  0  0  0
   -4.0279   -2.8378   -1.2897 C   0  0  0  0  0
    2.1669   -2.7527    1.9109 C   0  0  0  0  0
   -1.8672    5.2383   -0.2162 C   0  0  0  0  0
   -2.7013    4.1263   -0.2013 C   0  0  0  0  0
    0.7773   -0.7790    2.0119 C   0  0  0  0  0
   -0.5091    5.0903    0.0595 C   0  0  0  0  0
   -3.3251   -1.0877    0.7660 C   0  0  0  0  0
   -3.6238   -1.5367   -1.5891 C   0  0  0  0  0
    2.8956   -2.1862    0.8652 C   0  0  0  0  0
   -2.1735    2.8642    0.0704 C   0  0  0  0  0
    0.0314    3.8266    0.3567 C   0  0  0  0  0
    1.5059   -0.2125    0.9661 C   0  0  0  0  0
   -0.8031    2.6916    0.3251 C   0  0  0  0  0
   -3.2724   -0.6617   -0.5612 C   0  0  0  0  0
    2.5651   -0.9160    0.3927 C   0  0  0  0  0
    2.0637    3.7829    2.9867 C   0  0  0  0  0
    1.9020    4.5268    1.8877 C   0  0  0  0  0
   -3.1021    1.7382    0.0585 C   0  0  0  0  0
    1.8097    2.3386    2.7115 C   0  0  0  0  0
    1.5039    3.7002    0.6944 C   0  0  0  0  0
    1.1206    1.1720    0.4757 C   0  0  0  0  0
    1.9135    2.2857    1.1745 C   0  0  0  0  0
   -3.1514    1.3120   -3.2157 C   0  0  0  0  0
   -2.1716    0.9677   -2.1461 C   0  0  0  0  0
   -0.3118    1.4129    0.5757 N   0  0  0  0  0
   -2.8522    0.6907   -0.8720 N   0  0  0  0  0
    3.3220   -0.3581   -0.6743 N   0  0  0  0  0
    2.9533   -0.5693   -1.8538 O   0  0  0  0  0
   -4.0715    1.7265    0.8255 O   0  0  0  0  0
    4.3354    0.3288   -0.4037 O   0  0  0  0  0
  1  3  1  0  0  0
  2  5  1  0  0  0
  4 11  1  0  0  0
  6  9  1  0  0  0
  7 13  1  0  0  0
  8 15  1  0  0  0
 10 17  1  0  0  0
 12 18  1  0  0  0
 13 21  1  0  0  0
 14 16  1  0  0  0
 16 28  1  0  0  0
 17 29  1  0  0  0
 18 30  1  0  0  0
 21 29  1  0  0  0
 22 19  1  0  0  0
 22 25  1  0  0  0
 23 14  1  0  0  0
 23 20  1  0  0  0
 23 25  1  0  0  0
 24 15  1  0  0  0
 24 25  1  0  0  0
 24 28  1  0  0  0
 26 27  1  0  0  0
 27 29  1  0  0  0
 30 31  1  0  0  0
  1  4  2  0  0  0
  2  8  2  0  0  0
  3 10  2  0  0  0
  5 12  2  0  0  0
  6  7  2  0  0  0
  9 14  2  0  0  0
 11 17  2  0  0  0
 13 16  2  0  0  0
 15 18  2  0  0  0
 19 20  2  0  0  0
 21 32  2  0  0  0
 30 33  2  0  0  0
M  CHG  2  30   1  31  -1
M  END
> <rmsd>
0.464799315

$$$$
ZINC16923514


 31 33  0  0  0  0  0  0  0  0999 V2000
   -2.7604   -2.8997   -0.5969 C   0  0  0  0  0
    2.2303   -1.5159    0.6064 C   0  0  0  0  0
    1.3251   -1.3580    1.6559 C   0  0  0  0  0
   -3.9760   -3.3437   -0.0762 C   0  0  0  0  0
   -2.5952   -1.5565   -0.9346 C   0  0  0  0  0
    1.2743    0.4032   -0.5071 C   0  0  0  0  0
    2.2049   -0.6353   -0.4750 C   0  0  0  0  0
    0.3945   -0.3195    1.6238 C   0  0  0  0  0
   -5.0263   -2.4443    0.1067 C   0  0  0  0  0
   -4.8612   -1.1010   -0.2310 C   0  0  0  0  0
   -3.6457   -0.6572   -0.7518 C   0  0  0  0  0
    0.3691    0.5612    0.5423 C   0  0  0  0  0
   -3.5760    1.7491   -0.1629 C   0  0  0  0  0
   -3.1522    1.1053   -2.4101 C   0  0  0  0  0
    3.1611   -0.8019   -1.5813 C   0  0  0  0  0
   -0.5511   -0.1759    2.7472 C   0  0  0  0  0
   -0.7124    2.5747   -0.5150 C   0  0  0  0  0
   -3.1818    3.0907   -0.7351 C   0  0  0  0  0
   -6.3178   -2.9464    0.6648 C   0  0  0  0  0
   -5.9914   -0.1399   -0.0330 C   0  0  0  0  0
   -1.8407    3.5376   -0.1767 C   0  0  0  0  0
   -3.4533    0.7239   -1.1081 N   0  0  0  0  0
   -0.5659    1.6222    0.4893 N   0  0  0  0  0
    3.1170    0.0243   -2.5685 O   0  0  0  0  0
   -0.2121    0.5575    3.7480 O   0  0  0  0  0
   -3.9701    1.6587    0.9976 O   0  0  0  0  0
   -2.9053    0.4146   -3.3876 O   0  0  0  0  0
    4.0105   -1.7685   -1.5264 O   0  0  0  0  0
   -1.6797   -0.7897    2.6851 O   0  0  0  0  0
   -0.0584    2.6760   -1.5477 O   0  0  0  0  0
   -3.0865    2.8556   -2.5192 S   0  0  0  0  0
  1  5  1  0  0  0
  2  7  1  0  0  0
  3  8  1  0  0  0
  4  9  1  0  0  0
  6 12  1  0  0  0
  7 15  1  0  0  0
  8 16  1  0  0  0
 10 11  1  0  0  0
 11 22  1  0  0  0
 12 23  1  0  0  0
 13 22  1  0  0  0
 14 22  1  0  0  0
 14 31  1  0  0  0
 15 24  1  0  0  0
 16 25  1  0  0  0
 17 23  1  0  0  0
 18 13  1  0  0  0
 18 21  1  0  0  0
 18 31  1  0  0  0
 19  9  1  0  0  0
 20 10  1  0  0  0
 21 17  1  0  0  0
  1  4  2  0  0  0
  2  3  2  0  0  0
  5 11  2  0  0  0
  6  7  2  0  0  0
  8 12  2  0  0  0
  9 10  2  0  0  0
 13 26  2  0  0  0
 14 27  2  0  0  0
 15 28  2  0  0  0
 16 29  2  0  0  0
 17 30  2  0  0  0
M  CHG  2  24  -1  25  -1
M  END
> <rmsd>
0.330178231

$$$$
ZINC16925400


 31 33  0  0  0  0  0  0  0  0999 V2000
   -3.5123   -2.4370    0.8670 C   0  0  0  0  0
   -4.3095   -2.8942   -1.3673 C   0  0  0  0  0
   -3.3330   -1.0958    0.5286 C   0  0  0  0  0
   -4.1303   -1.5529   -1.7057 C   0  0  0  0  0
    2.2274   -1.5070    0.6093 C   0  0  0  0  0
    0.3896   -0.2999    1.6103 C   0  0  0  0  0
    1.2840    0.4098   -0.5189 C   0  0  0  0  0
    1.3168   -1.3412    1.6527 C   0  0  0  0  0
    2.2112   -0.6315   -0.4764 C   0  0  0  0  0
   -4.0006   -3.3362   -0.0810 C   0  0  0  0  0
   -3.6420   -0.6537   -0.7577 C   0  0  0  0  0
    0.3733    0.5756    0.5245 C   0  0  0  0  0
   -3.5804    1.7496   -0.1559 C   0  0  0  0  0
   -3.1641    1.1201   -2.4086 C   0  0  0  0  0
    1.3338   -2.2651    2.7984 C   0  0  0  0  0
    3.1722   -0.8069   -1.5777 C   0  0  0  0  0
   -0.7222    2.5900   -0.5167 C   0  0  0  0  0
   -3.1948    3.0961   -0.7225 C   0  0  0  0  0
   -2.9453   -5.6089    0.0076 C   0  0  0  0  0
   -4.1915   -4.7703    0.2803 C   0  0  0  0  0
   -1.8532    3.5459   -0.1678 C   0  0  0  0  0
   -3.4575    0.7302   -1.1073 N   0  0  0  0  0
   -0.5667    1.6327    0.4817 N   0  0  0  0  0
    0.4824   -2.0897    3.7486 O   0  0  0  0  0
    3.1357    0.0150   -2.5685 O   0  0  0  0  0
   -3.9686    1.6511    1.0059 O   0  0  0  0  0
   -2.9187    0.4359   -3.3910 O   0  0  0  0  0
    2.1997   -3.2183    2.8130 O   0  0  0  0  0
    4.0173   -1.7764   -1.5141 O   0  0  0  0  0
   -0.0734    2.7000   -1.5518 O   0  0  0  0  0
   -3.1068    2.8712   -2.5083 S   0  0  0  0  0
  1 10  1  0  0  0
  2  4  1  0  0  0
  3 11  1  0  0  0
  5  8  1  0  0  0
  6 12  1  0  0  0
  7  9  1  0  0  0
  8 15  1  0  0  0
  9 16  1  0  0  0
 11 22  1  0  0  0
 12 23  1  0  0  0
 13 22  1  0  0  0
 14 22  1  0  0  0
 14 31  1  0  0  0
 15 24  1  0  0  0
 16 25  1  0  0  0
 17 23  1  0  0  0
 18 13  1  0  0  0
 18 21  1  0  0  0
 18 31  1  0  0  0
 19 20  1  0  0  0
 20 10  1  0  0  0
 21 17  1  0  0  0
  1  3  2  0  0  0
  2 10  2  0  0  0
  4 11  2  0  0  0
  5  9  2  0  0  0
  6  8  2  0  0  0
  7 12  2  0  0  0
 13 26  2  0  0  0
 14 27  2  0  0  0
 15 28  2  0  0  0
 16 29  2  0  0  0
 17 30  2  0  0  0
M  CHG  2  24  -1  25  -1
M  END
> <rmsd>
0.329825699

$$$$
ZINC16923837


 31 33  0  0  0  0  0  0  0  0999 V2000
   -4.3091   -2.8942   -1.3675 C   0  0  0  0  0
   -4.1303   -1.5529   -1.7058 C   0  0  0  0  0
    2.2271   -1.5080    0.6093 C   0  0  0  0  0
    0.3894   -0.3008    1.6105 C   0  0  0  0  0
    1.2840    0.4090   -0.5186 C   0  0  0  0  0
   -3.3330   -1.0959    0.5286 C   0  0  0  0  0
    1.3165   -1.3422    1.6528 C   0  0  0  0  0
    2.2110   -0.6323   -0.4763 C   0  0  0  0  0
   -3.9999   -3.3364   -0.0812 C   0  0  0  0  0
   -3.5118   -2.4372    0.8668 C   0  0  0  0  0
   -3.6422   -0.6537   -0.7577 C   0  0  0  0  0
    0.3732    0.5749    0.5248 C   0  0  0  0  0
   -3.5803    1.7495   -0.1555 C   0  0  0  0  0
   -3.1641    1.1202   -2.4083 C   0  0  0  0  0
    1.3333   -2.2663    2.7983 C   0  0  0  0  0
    3.1720   -0.8077   -1.5776 C   0  0  0  0  0
   -0.7219    2.5896   -0.5162 C   0  0  0  0  0
   -3.1945    3.0960   -0.7219 C   0  0  0  0  0
   -4.2000   -4.7771    0.2574 C   0  0  0  0  0
   -3.1743   -2.8877    2.2502 C   0  0  0  0  0
   -1.8528    3.5456   -0.1672 C   0  0  0  0  0
   -3.4575    0.7302   -1.1070 N   0  0  0  0  0
   -0.5666    1.6321    0.4821 N   0  0  0  0  0
    0.4820   -2.0909    3.7486 O   0  0  0  0  0
    3.1356    0.0143   -2.5683 O   0  0  0  0  0
   -3.9685    1.6508    1.0063 O   0  0  0  0  0
   -2.9187    0.4361   -3.3908 O   0  0  0  0  0
    2.1991   -3.2196    2.8128 O   0  0  0  0  0
    4.0170   -1.7774   -1.5141 O   0  0  0  0  0
   -0.0731    2.6996   -1.5512 O   0  0  0  0  0
   -3.1065    2.8713   -2.5078 S   0  0  0  0  0
  1  9  1  0  0  0
  2 11  1  0  0  0
  3  7  1  0  0  0
  4 12  1  0  0  0
  5  8  1  0  0  0
  6 10  1  0  0  0
  7 15  1  0  0  0
  8 16  1  0  0  0
 11 22  1  0  0  0
 12 23  1  0  0  0
 13 22  1  0  0  0
 14 22  1  0  0  0
 14 31  1  0  0  0
 15 24  1  0  0  0
 16 25  1  0  0  0
 17 23  1  0  0  0
 18 13  1  0  0  0
 18 21  1  0  0  0
 18 31  1  0  0  0
 19  9  1  0  0  0
 20 10  1  0  0  0
 21 17  1  0  0  0
  1  2  2  0  0  0
  3  8  2  0  0  0
  4  7  2  0  0  0
  5 12  2  0  0  0
  6 11  2  0  0  0
  9 10  2  0  0  0
 13 26  2  0  0  0
 14 27  2  0  0  0
 15 28  2  0  0  0
 16 29  2  0  0  0
 17 30  2  0  0  0
M  CHG  2  24  -1  25  -1
M  END
> <rmsd>
0.330174446

$$$$
ZINC16924016


 31 33  0  0  0  0  0  0  0  0999 V2000
    2.2313   -1.5160    0.6062 C   0  0  0  0  0
    1.3260   -1.3585    1.6555 C   0  0  0  0  0
   -3.9788   -3.3412   -0.0733 C   0  0  0  0  0
   -5.0276   -2.4399    0.1088 C   0  0  0  0  0
    1.2757    0.4037   -0.5066 C   0  0  0  0  0
   -2.5955   -1.5576   -0.9349 C   0  0  0  0  0
    2.2063   -0.6348   -0.4749 C   0  0  0  0  0
    0.3954   -0.3199    1.6237 C   0  0  0  0  0
   -2.7627   -2.9001   -0.5952 C   0  0  0  0  0
   -4.8603   -1.0974   -0.2309 C   0  0  0  0  0
   -3.6443   -0.6562   -0.7528 C   0  0  0  0  0
    0.3703    0.5613    0.5427 C   0  0  0  0  0
   -3.5746    1.7498   -0.1627 C   0  0  0  0  0
   -3.1504    1.1070   -2.4102 C   0  0  0  0  0
    3.1627   -0.8009   -1.5811 C   0  0  0  0  0
   -0.5504   -0.1769    2.7470 C   0  0  0  0  0
   -0.7108    2.5754   -0.5139 C   0  0  0  0  0
   -3.1802    3.0916   -0.7342 C   0  0  0  0  0
   -1.6419   -3.8646   -0.7908 C   0  0  0  0  0
   -6.0018   -0.1546   -0.0264 C   0  0  0  0  0
   -1.8391    3.5381   -0.1753 C   0  0  0  0  0
   -3.4518    0.7250   -1.1084 N   0  0  0  0  0
   -0.5646    1.6224    0.4901 N   0  0  0  0  0
    3.1188    0.0257   -2.5678 O   0  0  0  0  0
   -0.2116    0.5561    3.7482 O   0  0  0  0  0
   -3.9689    1.6588    0.9977 O   0  0  0  0  0
   -2.9033    0.4168   -3.3880 O   0  0  0  0  0
    4.0120   -1.7676   -1.5264 O   0  0  0  0  0
   -1.6790   -0.7906    2.6844 O   0  0  0  0  0
   -0.0566    2.6771   -1.5463 O   0  0  0  0  0
   -3.0845    2.8573   -2.5184 S   0  0  0  0  0
  1  7  1  0  0  0
  2  8  1  0  0  0
  3  9  1  0  0  0
  4 10  1  0  0  0
  5 12  1  0  0  0
  6 11  1  0  0  0
  7 15  1  0  0  0
  8 16  1  0  0  0
 11 22  1  0  0  0
 12 23  1  0  0  0
 13 22  1  0  0  0
 14 22  1  0  0  0
 14 31  1  0  0  0
 15 24  1  0  0  0
 16 25  1  0  0  0
 17 23  1  0  0  0
 18 13  1  0  0  0
 18 21  1  0  0  0
 18 31  1  0  0  0
 19  9  1  0  0  0
 20 10  1  0  0  0
 21 17  1  0  0  0
  1  2  2  0  0  0
  3  4  2  0  0  0
  5  7  2  0  0  0
  6  9  2  0  0  0
  8 12  2  0  0  0
 10 11  2  0  0  0
 13 26  2  0  0  0
 14 27  2  0  0  0
 15 28  2  0  0  0
 16 29  2  0  0  0
 17 30  2  0  0  0
M  CHG  2  24  -1  25  -1
M  END
> <rmsd>
0.329619765

$$$$
ZINC16923695


 31 33  0  0  0  0  0  0  0  0999 V2000
    2.2308   -1.5165    0.6058 C   0  0  0  0  0
    1.3253   -1.3592    1.6551 C   0  0  0  0  0
   -2.7621   -2.8995   -0.5944 C   0  0  0  0  0
   -2.5958   -1.5574   -0.9358 C   0  0  0  0  0
    1.2753    0.4035   -0.5067 C   0  0  0  0  0
   -5.0263   -2.4395    0.1116 C   0  0  0  0  0
    2.2058   -0.6351   -0.4751 C   0  0  0  0  0
    0.3948   -0.3206    1.6234 C   0  0  0  0  0
   -3.9774   -3.3406   -0.0707 C   0  0  0  0  0
   -4.8600   -1.0973   -0.2298 C   0  0  0  0  0
   -3.6448   -0.6563   -0.7534 C   0  0  0  0  0
    0.3698    0.5608    0.5426 C   0  0  0  0  0
   -3.5750    1.7496   -0.1629 C   0  0  0  0  0
   -3.1507    1.1073   -2.4105 C   0  0  0  0  0
    3.1623   -0.8010   -1.5812 C   0  0  0  0  0
   -0.5511   -0.1777    2.7467 C   0  0  0  0  0
   -0.7112    2.5752   -0.5137 C   0  0  0  0  0
   -3.1805    3.0915   -0.7341 C   0  0  0  0  0
   -4.1561   -4.7756    0.2940 C   0  0  0  0  0
   -6.0013   -0.1547   -0.0247 C   0  0  0  0  0
   -1.8395    3.5379   -0.1750 C   0  0  0  0  0
   -3.4522    0.7250   -1.1087 N   0  0  0  0  0
   -0.5651    1.6220    0.4901 N   0  0  0  0  0
    3.1185    0.0258   -2.5678 O   0  0  0  0  0
   -0.2123    0.5550    3.7481 O   0  0  0  0  0
   -3.9694    1.6584    0.9974 O   0  0  0  0  0
   -2.9035    0.4172   -3.3884 O   0  0  0  0  0
    4.0116   -1.7677   -1.5267 O   0  0  0  0  0
   -1.6797   -0.7913    2.6839 O   0  0  0  0  0
   -0.0569    2.6771   -1.5461 O   0  0  0  0  0
   -3.0848    2.8576   -2.5183 S   0  0  0  0  0
  1  7  1  0  0  0
  2  8  1  0  0  0
  3  9  1  0  0  0
  4 11  1  0  0  0
  5 12  1  0  0  0
  6 10  1  0  0  0
  7 15  1  0  0  0
  8 16  1  0  0  0
 11 22  1  0  0  0
 12 23  1  0  0  0
 13 22  1  0  0  0
 14 22  1  0  0  0
 14 31  1  0  0  0
 15 24  1  0  0  0
 16 25  1  0  0  0
 17 23  1  0  0  0
 18 13  1  0  0  0
 18 21  1  0  0  0
 18 31  1  0  0  0
 19  9  1  0  0  0
 20 10  1  0  0  0
 21 17  1  0  0  0
  1  2  2  0  0  0
  3  4  2  0  0  0
  5  7  2  0  0  0
  6  9  2  0  0  0
  8 12  2  0  0  0
 10 11  2  0  0  0
 13 26  2  0  0  0
 14 27  2  0  0  0
 15 28  2  0  0  0
 16 29  2  0  0  0
 17 30  2  0  0  0
M  CHG  2  24  -1  25  -1
M  END
> <rmsd>
0.328750461

$$$$
ZINC16924001


 31 33  0  0  0  0  0  0  0  0999 V2000
   -3.9683   -3.3415   -0.0894 C   0  0  0  0  0
   -5.0194   -2.4449    0.1027 C   0  0  0  0  0
    2.2220   -1.5112    0.6091 C   0  0  0  0  0
    0.3856   -0.3025    1.6106 C   0  0  0  0  0
    1.2802    0.4066   -0.5186 C   0  0  0  0  0
   -2.5958   -1.5485   -0.9487 C   0  0  0  0  0
    1.3118   -1.3446    1.6527 C   0  0  0  0  0
    2.2064   -0.6355   -0.4766 C   0  0  0  0  0
   -2.7565   -2.8934   -0.6151 C   0  0  0  0  0
   -4.8586   -1.1001   -0.2309 C   0  0  0  0  0
   -3.6469   -0.6519   -0.7566 C   0  0  0  0  0
    0.3699    0.5733    0.5249 C   0  0  0  0  0
   -3.5827    1.7513   -0.1544 C   0  0  0  0  0
   -3.1676    1.1217   -2.4073 C   0  0  0  0  0
    1.3281   -2.2688    2.7982 C   0  0  0  0  0
    3.1670   -0.8117   -1.5781 C   0  0  0  0  0
   -0.7238    2.5889   -0.5157 C   0  0  0  0  0
   -3.1960    3.0974   -0.7209 C   0  0  0  0  0
   -1.6332   -3.8529   -0.8213 C   0  0  0  0  0
   -6.0024   -0.1625   -0.0158 C   0  0  0  0  0
   -1.8538    3.5459   -0.1665 C   0  0  0  0  0
   -3.4611    0.7318   -1.1060 N   0  0  0  0  0
   -0.5691    1.6313    0.4825 N   0  0  0  0  0
    0.4771   -2.0927    3.7487 O   0  0  0  0  0
    3.1311    0.0103   -2.5687 O   0  0  0  0  0
   -3.9708    1.6529    1.0074 O   0  0  0  0  0
   -2.9230    0.4373   -3.3899 O   0  0  0  0  0
    2.1931   -3.2229    2.8125 O   0  0  0  0  0
    4.0112   -1.7821   -1.5147 O   0  0  0  0  0
   -0.0751    2.6983   -1.5509 O   0  0  0  0  0
   -3.1086    2.8727   -2.5068 S   0  0  0  0  0
  1  9  1  0  0  0
  2 10  1  0  0  0
  3  7  1  0  0  0
  4 12  1  0  0  0
  5  8  1  0  0  0
  6 11  1  0  0  0
  7 15  1  0  0  0
  8 16  1  0  0  0
 11 22  1  0  0  0
 12 23  1  0  0  0
 13 22  1  0  0  0
 14 22  1  0  0  0
 14 31  1  0  0  0
 15 24  1  0  0  0
 16 25  1  0  0  0
 17 23  1  0  0  0
 18 13  1  0  0  0
 18 21  1  0  0  0
 18 31  1  0  0  0
 19  9  1  0  0  0
 20 10  1  0  0  0
 21 17  1  0  0  0
  1  2  2  0  0  0
  3  8  2  0  0  0
  4  7  2  0  0  0
  5 12  2  0  0  0
  6  9  2  0  0  0
 10 11  2  0  0  0
 13 26  2  0  0  0
 14 27  2  0  0  0
 15 28  2  0  0  0
 16 29  2  0  0  0
 17 30  2  0  0  0
M  CHG  2  24  -1  25  -1
M  END
> <rmsd>
0.330000192

$$$$
ZINC16923837


 31 33  0  0  0  0  0  0  0  0999 V2000
   -3.5120   -2.4362    0.8680 C   0  0  0  0  0
   -3.3331   -1.0952    0.5288 C   0  0  0  0  0
    2.2270   -1.5076    0.6092 C   0  0  0  0  0
    0.3893   -0.3005    1.6103 C   0  0  0  0  0
    1.2837    0.4092   -0.5189 C   0  0  0  0  0
   -4.1306   -1.5537   -1.7051 C   0  0  0  0  0
    1.3164   -1.3418    1.6526 C   0  0  0  0  0
    2.2108   -0.6320   -0.4765 C   0  0  0  0  0
   -4.0003   -3.3361   -0.0794 C   0  0  0  0  0
   -4.3096   -2.8949   -1.3659 C   0  0  0  0  0
   -3.6424   -0.6539   -0.7577 C   0  0  0  0  0
    0.3730    0.5751    0.5245 C   0  0  0  0  0
   -3.5806    1.7494   -0.1558 C   0  0  0  0  0
   -3.1644    1.1199   -2.4085 C   0  0  0  0  0
    1.3334   -2.2658    2.7982 C   0  0  0  0  0
    3.1719   -0.8075   -1.5779 C   0  0  0  0  0
   -0.7223    2.5896   -0.5166 C   0  0  0  0  0
   -3.1950    3.0958   -0.7223 C   0  0  0  0  0
   -4.1833   -4.7670    0.3070 C   0  0  0  0  0
   -4.8332   -3.8400   -2.3969 C   0  0  0  0  0
   -1.8533    3.5456   -0.1677 C   0  0  0  0  0
   -3.4578    0.7300   -1.1072 N   0  0  0  0  0
   -0.5669    1.6322    0.4818 N   0  0  0  0  0
    0.4821   -2.0904    3.7485 O   0  0  0  0  0
    3.1353    0.0145   -2.5686 O   0  0  0  0  0
   -3.9688    1.6508    1.0060 O   0  0  0  0  0
   -2.9190    0.4358   -3.3910 O   0  0  0  0  0
    2.1992   -3.2191    2.8128 O   0  0  0  0  0
    4.0169   -1.7770   -1.5142 O   0  0  0  0  0
   -0.0736    2.6996   -1.5517 O   0  0  0  0  0
   -3.1070    2.8710   -2.5082 S   0  0  0  0  0
  1  9  1  0  0  0
  2 11  1  0  0  0
  3  7  1  0  0  0
  4 12  1  0  0  0
  5  8  1  0  0  0
  6 10  1  0  0  0
  7 15  1  0  0  0
  8 16  1  0  0  0
 11 22  1  0  0  0
 12 23  1  0  0  0
 13 22  1  0  0  0
 14 22  1  0  0  0
 14 31  1  0  0  0
 15 24  1  0  0  0
 16 25  1  0  0  0
 17 23  1  0  0  0
 18 13  1  0  0  0
 18 21  1  0  0  0
 18 31  1  0  0  0
 19  9  1  0  0  0
 20 10  1  0  0  0
 21 17  1  0  0  0
  1  2  2  0  0  0
  3  8  2  0  0  0
  4  7  2  0  0  0
  5 12  2  0  0  0
  6 11  2  0  0  0
  9 10  2  0  0  0
 13 26  2  0  0  0
 14 27  2  0  0  0
 15 28  2  0  0  0
 16 29  2  0  0  0
 17 30  2  0  0  0
M  CHG  2  24  -1  25  -1
M  END
> <rmsd>
0.329629004

$$$$
ZINC16923853


 31 33  0  0  0  0  0  0  0  0999 V2000
    2.1303   -1.1137    0.9959 C   0  0  0  0  0
    1.3627   -0.6977    2.0838 C   0  0  0  0  0
   -4.2161   -2.9443   -1.5306 C   0  0  0  0  0
   -4.2421   -1.5756   -1.7977 C   0  0  0  0  0
    0.9993    0.4888   -0.4148 C   0  0  0  0  0
   -2.9725   -1.1589    0.2152 C   0  0  0  0  0
    1.9486   -0.5204   -0.2534 C   0  0  0  0  0
    0.4135    0.3115    1.9224 C   0  0  0  0  0
   -3.5686   -3.4204   -0.3906 C   0  0  0  0  0
   -2.9467   -2.5277    0.4823 C   0  0  0  0  0
   -3.6202   -0.6829   -0.9248 C   0  0  0  0  0
    0.2318    0.9048    0.6731 C   0  0  0  0  0
   -3.6251    1.6783   -0.1720 C   0  0  0  0  0
   -3.7110    1.2166   -2.5009 C   0  0  0  0  0
    2.7595   -0.9589   -1.4005 C   0  0  0  0  0
   -0.3842    0.7318    3.0901 C   0  0  0  0  0
   -1.0186    2.6136   -0.6901 C   0  0  0  0  0
   -3.5064    3.0858   -0.7084 C   0  0  0  0  0
   -3.5545   -4.8901   -0.1257 C   0  0  0  0  0
   -2.2476   -3.0142    1.7090 C   0  0  0  0  0
   -2.1151    3.6410   -0.4515 C   0  0  0  0  0
   -3.6468    0.7294   -1.2008 N   0  0  0  0  0
   -0.7250    1.9308    0.4867 N   0  0  0  0  0
    2.5724   -0.3956   -2.5435 O   0  0  0  0  0
    0.0633    1.6819    3.8325 O   0  0  0  0  0
   -3.7116    1.4782    1.0374 O   0  0  0  0  0
   -3.6510    0.6149   -3.5629 O   0  0  0  0  0
    3.6296   -1.8920   -1.2240 O   0  0  0  0  0
   -1.4981    0.1325    3.3235 O   0  0  0  0  0
   -0.5036    2.4558   -1.7921 O   0  0  0  0  0
   -3.8323    2.9671   -2.4768 S   0  0  0  0  0
  1  7  1  0  0  0
  2  8  1  0  0  0
  3  9  1  0  0  0
  4 11  1  0  0  0
  5 12  1  0  0  0
  6 10  1  0  0  0
  7 15  1  0  0  0
  8 16  1  0  0  0
 11 22  1  0  0  0
 12 23  1  0  0  0
 13 22  1  0  0  0
 14 22  1  0  0  0
 14 31  1  0  0  0
 15 24  1  0  0  0
 16 25  1  0  0  0
 17 23  1  0  0  0
 18 13  1  0  0  0
 18 21  1  0  0  0
 18 31  1  0  0  0
 19  9  1  0  0  0
 20 10  1  0  0  0
 21 17  1  0  0  0
  1  2  2  0  0  0
  3  4  2  0  0  0
  5  7  2  0  0  0
  6 11  2  0  0  0
  8 12  2  0  0  0
  9 10  2  0  0  0
 13 26  2  0  0  0
 14 27  2  0  0  0
 15 28  2  0  0  0
 16 29  2  0  0  0
 17 30  2  0  0  0
M  CHG  2  24  -1  25  -1
M  END
> <rmsd>
0.568626046

$$$$
ZINC35397526


 30 31  0  0  0  0  0  0  0  0999 V2000
   -2.8804   -3.1085   -0.7728 C   0  0  0  0  0
   -2.4327   -2.2582   -1.7839 C   0  0  0  0  0
    1.0044    0.7844   -0.3097 C   0  0  0  0  0
   -3.2339   -1.2046    0.6720 C   0  0  0  0  0
    0.0123    2.7199   -1.2719 C   0  0  0  0  0
    2.0571    0.9142   -1.2088 C   0  0  0  0  0
   -0.0413    1.7003   -0.3352 C   0  0  0  0  0
   -3.2811   -2.5817    0.4550 C   0  0  0  0  0
   -2.3856   -0.8811   -1.5669 C   0  0  0  0  0
   -2.7862   -0.3542   -0.3391 C   0  0  0  0  0
    2.0167    1.9689   -2.1064 C   0  0  0  0  0
    3.1637   -0.0574   -1.1797 C   0  0  0  0  0
    5.9346    2.1214   -2.1203 C   0  0  0  0  0
    5.7425    4.6135   -1.8424 C   0  0  0  0  0
    1.8836    2.0335   -5.7508 C   0  0  0  0  0
    2.5747   -0.3819   -5.8645 C   0  0  0  0  0
    3.8825    3.3353   -3.0075 C   0  0  0  0  0
    3.4080    1.0715   -3.9556 C   0  0  0  0  0
    4.9726    3.2950   -1.9298 C   0  0  0  0  0
    2.2639    0.7948   -4.9385 C   0  0  0  0  0
    1.0179    2.8784   -2.1613 N   0  0  0  0  0
   -1.1341    1.5934    0.5733 N   0  0  0  0  0
    3.0604    2.1043   -3.0039 N   0  0  0  0  0
    3.0767   -1.1161   -1.9068 O   0  0  0  0  0
    4.1803    0.1851   -0.4280 O   0  0  0  0  0
   -3.6905    1.6838    0.9854 O   0  0  0  0  0
   -2.8353    2.0515   -1.3455 O   0  0  0  0  0
   -3.7098   -3.3982    1.4266 F   0  0  0  0  0
   -1.9535   -0.0739   -2.5458 F   0  0  0  0  0
   -2.7256    1.3922   -0.0584 S   0  0  0  0  0
  1  8  1  0  0  0
  2  9  1  0  0  0
  3  7  1  0  0  0
  4 10  1  0  0  0
  5 21  1  0  0  0
  6 11  1  0  0  0
  6 12  1  0  0  0
  7 22  1  0  0  0
  8 28  1  0  0  0
  9 29  1  0  0  0
 11 23  1  0  0  0
 12 24  1  0  0  0
 13 19  1  0  0  0
 14 19  1  0  0  0
 15 20  1  0  0  0
 16 20  1  0  0  0
 17 19  1  0  0  0
 17 23  1  0  0  0
 18 20  1  0  0  0
 18 23  1  0  0  0
 30 10  1  0  0  0
 30 22  1  0  0  0
  1  2  2  0  0  0
  3  6  2  0  0  0
  4  8  2  0  0  0
  5  7  2  0  0  0
  9 10  2  0  0  0
 11 21  2  0  0  0
 12 25  2  0  0  0
 30 26  2  0  0  0
 30 27  2  0  0  0
M  CHG  1  24  -1
M  END
> <rmsd>
0.688957155

$$$$
ZINC35397526


 30 31  0  0  0  0  0  0  0  0999 V2000
   -3.3293   -3.1265   -0.6892 C   0  0  0  0  0
   -2.9152   -2.3244   -1.7526 C   0  0  0  0  0
    0.8681    0.4571   -0.6597 C   0  0  0  0  0
   -3.3984   -1.1857    0.7480 C   0  0  0  0  0
   -0.0594    2.4536   -1.5597 C   0  0  0  0  0
    1.8381    0.4950   -1.6552 C   0  0  0  0  0
   -0.1023    1.4512   -0.6040 C   0  0  0  0  0
   -3.5710   -2.5572    0.5610 C   0  0  0  0  0
   -2.7427   -0.9530   -1.5657 C   0  0  0  0  0
   -2.9843   -0.3835   -0.3154 C   0  0  0  0  0
    1.7941    1.5400   -2.5638 C   0  0  0  0  0
    2.8650   -0.5593   -1.7119 C   0  0  0  0  0
    5.6934    1.3872   -2.9455 C   0  0  0  0  0
    5.7194    3.8894   -2.6955 C   0  0  0  0  0
    1.3233    1.5761   -6.1806 C   0  0  0  0  0
    1.8139   -0.8868   -6.3150 C   0  0  0  0  0
    3.6656    2.7475   -3.6591 C   0  0  0  0  0
    2.9321    0.5175   -4.5183 C   0  0  0  0  0
    4.8462    2.6340   -2.6871 C   0  0  0  0  0
    1.6826    0.3202   -5.3852 C   0  0  0  0  0
    0.8670    2.5238   -2.5417 N   0  0  0  0  0
   -1.1095    1.4393    0.4041 N   0  0  0  0  0
    2.7558    1.5843   -3.5570 N   0  0  0  0  0
    2.6292   -1.6158   -2.4087 O   0  0  0  0  0
    3.9635   -0.3888   -1.0627 O   0  0  0  0  0
   -3.6012    1.7327    1.0509 O   0  0  0  0  0
   -2.9440    2.0080   -1.3557 O   0  0  0  0  0
   -3.9674   -3.3274    1.5828 F   0  0  0  0  0
   -2.3444   -0.1922   -2.5948 F   0  0  0  0  0
   -2.7642    1.3558   -0.0728 S   0  0  0  0  0
  1  8  1  0  0  0
  2  9  1  0  0  0
  3  7  1  0  0  0
  4 10  1  0  0  0
  5 21  1  0  0  0
  6 11  1  0  0  0
  6 12  1  0  0  0
  7 22  1  0  0  0
  8 28  1  0  0  0
  9 29  1  0  0  0
 11 23  1  0  0  0
 12 24  1  0  0  0
 13 19  1  0  0  0
 14 19  1  0  0  0
 15 20  1  0  0  0
 16 20  1  0  0  0
 17 19  1  0  0  0
 17 23  1  0  0  0
 18 20  1  0  0  0
 18 23  1  0  0  0
 30 10  1  0  0  0
 30 22  1  0  0  0
  1  2  2  0  0  0
  3  6  2  0  0  0
  4  8  2  0  0  0
  5  7  2  0  0  0
  9 10  2  0  0  0
 11 21  2  0  0  0
 12 25  2  0  0  0
 30 26  2  0  0  0
 30 27  2  0  0  0
M  CHG  1  24  -1
M  END
> <rmsd>
0.509986699

$$$$
ZINC64843219


 26 27  0  0  0  0  0  0  0  0999 V2000
   -3.2326   -1.2081    0.6730 C   0  0  0  0  0
   -2.3867   -0.8793   -1.5661 C   0  0  0  0  0
   -3.2800   -2.5847    0.4530 C   0  0  0  0  0
   -2.4341   -2.2559   -1.7861 C   0  0  0  0  0
    1.0042    0.7847   -0.3092 C   0  0  0  0  0
    0.0111    2.7189   -1.2729 C   0  0  0  0  0
    2.0566    0.9141   -1.2088 C   0  0  0  0  0
   -0.0419    1.7002   -0.3353 C   0  0  0  0  0
   -2.7860   -0.3554   -0.3366 C   0  0  0  0  0
   -2.8806   -3.1086   -0.7765 C   0  0  0  0  0
    2.0155    1.9680   -2.1075 C   0  0  0  0  0
    3.1636   -0.0571   -1.1792 C   0  0  0  0  0
    1.5448    2.4474   -7.7484 C   0  0  0  0  0
    4.2448    2.9125   -2.6534 C   0  0  0  0  0
    2.3018    1.6115   -6.7280 C   0  0  0  0  0
    2.3520    2.3047   -5.3646 C   0  0  0  0  0
    3.0535    1.4622   -4.3045 C   0  0  0  0  0
    1.0164    2.8770   -2.1628 N   0  0  0  0  0
   -1.1343    1.5937    0.5735 N   0  0  0  0  0
    3.0758    2.1051   -3.0198 N   0  0  0  0  0
    3.0767   -1.1165   -1.9052 O   0  0  0  0  0
    4.1803    0.1865   -0.4280 O   0  0  0  0  0
   -3.6906    1.6836    0.9864 O   0  0  0  0  0
   -2.8363    2.0495   -1.3450 O   0  0  0  0  0
   -2.7260    1.3913   -0.0574 S   0  0  0  0  0
   -2.9454   -4.9736   -1.0749 Br  0  0  0  0  0
  1  9  1  0  0  0
  2  4  1  0  0  0
  3 10  1  0  0  0
  5  8  1  0  0  0
  6 18  1  0  0  0
  7 11  1  0  0  0
  7 12  1  0  0  0
  8 19  1  0  0  0
 10 26  1  0  0  0
 11 20  1  0  0  0
 12 21  1  0  0  0
 13 15  1  0  0  0
 14 20  1  0  0  0
 15 16  1  0  0  0
 16 17  1  0  0  0
 17 20  1  0  0  0
 25  9  1  0  0  0
 25 19  1  0  0  0
  1  3  2  0  0  0
  2  9  2  0  0  0
  4 10  2  0  0  0
  5  7  2  0  0  0
  6  8  2  0  0  0
 11 18  2  0  0  0
 12 22  2  0  0  0
 25 23  2  0  0  0
 25 24  2  0  0  0
M  CHG  1  21  -1
M  END
> <rmsd>
0.689278483

$$$$
ZINC64843219


 26 27  0  0  0  0  0  0  0  0999 V2000
   -3.3976   -1.1892    0.7491 C   0  0  0  0  0
   -2.7438   -0.9514   -1.5646 C   0  0  0  0  0
   -3.5709   -2.5602    0.5593 C   0  0  0  0  0
   -2.9171   -2.3224   -1.7544 C   0  0  0  0  0
    0.8680    0.4564   -0.6592 C   0  0  0  0  0
   -0.0604    2.4518   -1.5608 C   0  0  0  0  0
    1.8377    0.4937   -1.6551 C   0  0  0  0  0
   -0.1027    1.4504   -0.6042 C   0  0  0  0  0
   -2.9842   -0.3848   -0.3128 C   0  0  0  0  0
   -3.3305   -3.1268   -0.6925 C   0  0  0  0  0
    1.7929    1.5379   -2.5648 C   0  0  0  0  0
    2.8648   -0.5606   -1.7112 C   0  0  0  0  0
    0.8308    1.9921   -8.1451 C   0  0  0  0  0
    4.0267    2.2997   -3.3329 C   0  0  0  0  0
    1.6142    1.1106   -7.1848 C   0  0  0  0  0
    1.8457    1.8124   -5.8447 C   0  0  0  0  0
    2.5774    0.9291   -4.8395 C   0  0  0  0  0
    0.8657    2.5214   -2.5432 N   0  0  0  0  0
   -1.1094    1.4392    0.4042 N   0  0  0  0  0
    2.7699    1.5821   -3.5743 N   0  0  0  0  0
    2.6289   -1.6177   -2.4069 O   0  0  0  0  0
    3.9635   -0.3890   -1.0625 O   0  0  0  0  0
   -3.6010    1.7326    1.0518 O   0  0  0  0  0
   -2.9448    2.0057   -1.3553 O   0  0  0  0  0
   -2.7643    1.3549   -0.0719 S   0  0  0  0  0
   -3.5659   -4.9841   -0.9499 Br  0  0  0  0  0
  1  9  1  0  0  0
  2  4  1  0  0  0
  3 10  1  0  0  0
  5  8  1  0  0  0
  6 18  1  0  0  0
  7 11  1  0  0  0
  7 12  1  0  0  0
  8 19  1  0  0  0
 10 26  1  0  0  0
 11 20  1  0  0  0
 12 21  1  0  0  0
 13 15  1  0  0  0
 14 20  1  0  0  0
 15 16  1  0  0  0
 16 17  1  0  0  0
 17 20  1  0  0  0
 25  9  1  0  0  0
 25 19  1  0  0  0
  1  3  2  0  0  0
  2  9  2  0  0  0
  4 10  2  0  0  0
  5  7  2  0  0  0
  6  8  2  0  0  0
 11 18  2  0  0  0
 12 22  2  0  0  0
 25 23  2  0  0  0
 25 24  2  0  0  0
M  CHG  1  21  -1
M  END
> <rmsd>
0.510237515

$$$$
ZINC32961675


 31 33  0  0  0  0  0  0  0  0999 V2000
    7.5749    2.4593   -8.0528 C   0  0  0  0  0
   -3.4260   -2.2288   -1.8042 C   0  0  0  0  0
    0.8581    2.5118   -2.5852 C   0  0  0  0  0
   -0.1151    2.4928   -1.5861 C   0  0  0  0  0
   -3.2601   -0.8610   -1.5876 C   0  0  0  0  0
    0.8576    0.4766   -0.6771 C   0  0  0  0  0
   -3.0216   -2.6494    0.5403 C   0  0  0  0  0
    1.8308    0.4957   -1.6762 C   0  0  0  0  0
   -3.3069   -3.1231   -0.7403 C   0  0  0  0  0
   -2.8555   -1.2815    0.7570 C   0  0  0  0  0
    1.8310    1.5133   -2.6302 C   0  0  0  0  0
   -0.1153    1.4752   -0.6321 C   0  0  0  0  0
   -2.9748   -0.3873   -0.3069 C   0  0  0  0  0
    2.8482   -0.5721   -1.7011 C   0  0  0  0  0
    3.6913    2.7080   -3.7504 C   0  0  0  0  0
    2.5099    0.8491   -4.8980 C   0  0  0  0  0
    4.9495    2.3429   -4.5423 C   0  0  0  0  0
    3.8063    0.5435   -5.6519 C   0  0  0  0  0
   -3.4841   -4.5858   -0.9727 C   0  0  0  0  0
   -2.5507   -0.8068    2.1401 C   0  0  0  0  0
    6.3613    2.7302   -7.2679 C   0  0  0  0  0
    5.8121    1.4671   -6.6132 C   0  0  0  0  0
    8.5326    2.2477   -8.6726 N   0  0  0  0  0
    2.7985    1.5504   -3.6407 N   0  0  0  0  0
    4.6031    1.7615   -5.8448 N   0  0  0  0  0
   -1.1118    1.4560    0.3903 N   0  0  0  0  0
    2.6044   -1.6404   -2.3747 O   0  0  0  0  0
    3.9425   -0.3965   -1.0480 O   0  0  0  0  0
   -3.5964    1.7235    1.0658 O   0  0  0  0  0
   -2.9714    2.0039   -1.3488 O   0  0  0  0  0
   -2.7693    1.3544   -0.0680 S   0  0  0  0  0
  2  9  1  0  0  0
  3 11  1  0  0  0
  4 12  1  0  0  0
  5 13  1  0  0  0
  6  8  1  0  0  0
  7 10  1  0  0  0
  8 14  1  0  0  0
 11 24  1  0  0  0
 12 26  1  0  0  0
 14 27  1  0  0  0
 15 17  1  0  0  0
 15 24  1  0  0  0
 16 18  1  0  0  0
 16 24  1  0  0  0
 17 25  1  0  0  0
 18 25  1  0  0  0
 19  9  1  0  0  0
 20 10  1  0  0  0
 21  1  1  0  0  0
 21 22  1  0  0  0
 22 25  1  0  0  0
 31 13  1  0  0  0
 31 26  1  0  0  0
  2  5  2  0  0  0
  3  4  2  0  0  0
  6 12  2  0  0  0
  7  9  2  0  0  0
  8 11  2  0  0  0
 10 13  2  0  0  0
 14 28  2  0  0  0
 31 29  2  0  0  0
 31 30  2  0  0  0
  1 23  3  0  0  0
M  CHG  1  27  -1
M  END
> <rmsd>
0.528320849

$$$$
ZINC32961675


 31 33  0  0  0  0  0  0  0  0999 V2000
    8.1845    3.4475   -7.0247 C   0  0  0  0  0
   -2.9403   -2.1987   -1.8865 C   0  0  0  0  0
    1.0095    2.8741   -2.2078 C   0  0  0  0  0
   -0.0470    2.7605   -1.3043 C   0  0  0  0  0
   -2.9037   -0.8265   -1.6391 C   0  0  0  0  0
    0.9940    0.8088   -0.3324 C   0  0  0  0  0
   -2.7217   -2.6314    0.4804 C   0  0  0  0  0
    2.0506    0.9224   -1.2359 C   0  0  0  0  0
   -2.8494   -3.1012   -0.8267 C   0  0  0  0  0
   -2.6849   -1.2592    0.7278 C   0  0  0  0  0
    2.0583    1.9551   -2.1737 C   0  0  0  0  0
   -0.0547    1.7278   -0.3665 C   0  0  0  0  0
   -2.7758   -0.3567   -0.3319 C   0  0  0  0  0
    3.1471   -0.0625   -1.1784 C   0  0  0  0  0
    3.9137    3.3117   -3.1010 C   0  0  0  0  0
    2.9936    1.3892   -4.3759 C   0  0  0  0  0
    5.2643    3.0606   -3.7763 C   0  0  0  0  0
    4.3740    1.1995   -5.0091 C   0  0  0  0  0
   -2.8883   -4.5685   -1.0921 C   0  0  0  0  0
   -2.5472   -0.7889    2.1389 C   0  0  0  0  0
    6.8862    3.6084   -6.3534 C   0  0  0  0  0
    6.3806    2.2941   -5.7678 C   0  0  0  0  0
    9.2091    3.3227   -7.5549 N   0  0  0  0  0
    3.1087    2.0864   -3.0889 N   0  0  0  0  0
    5.0865    2.4791   -5.1123 N   0  0  0  0  0
   -1.1366    1.6119    0.5580 N   0  0  0  0  0
    3.0516   -1.1335   -1.8845 O   0  0  0  0  0
    4.1593    0.1849   -0.4240 O   0  0  0  0  0
   -3.6861    1.6728    1.0018 O   0  0  0  0  0
   -2.8654    2.0471   -1.3404 O   0  0  0  0  0
   -2.7316    1.3908   -0.0541 S   0  0  0  0  0
  2  9  1  0  0  0
  3 11  1  0  0  0
  4 12  1  0  0  0
  5 13  1  0  0  0
  6  8  1  0  0  0
  7 10  1  0  0  0
  8 14  1  0  0  0
 11 24  1  0  0  0
 12 26  1  0  0  0
 14 27  1  0  0  0
 15 17  1  0  0  0
 15 24  1  0  0  0
 16 18  1  0  0  0
 16 24  1  0  0  0
 17 25  1  0  0  0
 18 25  1  0  0  0
 19  9  1  0  0  0
 20 10  1  0  0  0
 21  1  1  0  0  0
 21 22  1  0  0  0
 22 25  1  0  0  0
 31 13  1  0  0  0
 31 26  1  0  0  0
  2  5  2  0  0  0
  3  4  2  0  0  0
  6 12  2  0  0  0
  7  9  2  0  0  0
  8 11  2  0  0  0
 10 13  2  0  0  0
 14 28  2  0  0  0
 31 29  2  0  0  0
 31 30  2  0  0  0
  1 23  3  0  0  0
M  CHG  1  27  -1
M  END
> <rmsd>
0.709731221

$$$$
ZINC32961695


 31 33  0  0  0  0  0  0  0  0999 V2000
    8.2102    3.4716   -6.9839 C   0  0  0  0  0
    1.0206    2.8840   -2.1905 C   0  0  0  0  0
   -0.0387    2.7670   -1.2906 C   0  0  0  0  0
    0.9952    0.8067   -0.3285 C   0  0  0  0  0
   -2.8528   -3.1010   -0.8021 C   0  0  0  0  0
   -3.2078   -1.2126    0.6622 C   0  0  0  0  0
   -2.3846   -0.8629   -1.5822 C   0  0  0  0  0
    2.0545    0.9237   -1.2284 C   0  0  0  0  0
   -3.2454   -2.5881    0.4341 C   0  0  0  0  0
   -2.4224   -2.2385   -1.8103 C   0  0  0  0  0
    2.0672    1.9623   -2.1594 C   0  0  0  0  0
   -0.0514    1.7284   -0.3596 C   0  0  0  0  0
   -2.7774   -0.3499   -0.3459 C   0  0  0  0  0
    3.1485   -0.0642   -1.1742 C   0  0  0  0  0
    3.9282    3.3205   -3.0729 C   0  0  0  0  0
    3.0072    1.4084   -4.3627 C   0  0  0  0  0
    5.2802    3.0706   -3.7460 C   0  0  0  0  0
    4.3889    1.2196   -4.9933 C   0  0  0  0  0
   -3.7054   -3.5104    1.5120 C   0  0  0  0  0
   -2.0023   -2.7871   -3.1319 C   0  0  0  0  0
    6.9105    3.6312   -6.3151 C   0  0  0  0  0
    6.4001    2.3144   -5.7394 C   0  0  0  0  0
    9.2359    3.3478   -7.5121 N   0  0  0  0  0
    3.1204    2.0971   -3.0709 N   0  0  0  0  0
    5.1046    2.4981   -5.0862 N   0  0  0  0  0
   -1.1360    1.6090    0.5612 N   0  0  0  0  0
    3.0524   -1.1304   -1.8875 O   0  0  0  0  0
    4.1592    0.1760   -0.4155 O   0  0  0  0  0
   -3.6867    1.6731    0.9983 O   0  0  0  0  0
   -2.8586    2.0605   -1.3392 O   0  0  0  0  0
   -2.7299    1.3956   -0.0567 S   0  0  0  0  0
  2 11  1  0  0  0
  3 12  1  0  0  0
  4  8  1  0  0  0
  5 10  1  0  0  0
  6  9  1  0  0  0
  7 13  1  0  0  0
  8 14  1  0  0  0
 11 24  1  0  0  0
 12 26  1  0  0  0
 14 27  1  0  0  0
 15 17  1  0  0  0
 15 24  1  0  0  0
 16 18  1  0  0  0
 16 24  1  0  0  0
 17 25  1  0  0  0
 18 25  1  0  0  0
 19  9  1  0  0  0
 20 10  1  0  0  0
 21  1  1  0  0  0
 21 22  1  0  0  0
 22 25  1  0  0  0
 31 13  1  0  0  0
 31 26  1  0  0  0
  2  3  2  0  0  0
  4 12  2  0  0  0
  5  9  2  0  0  0
  6 13  2  0  0  0
  7 10  2  0  0  0
  8 11  2  0  0  0
 14 28  2  0  0  0
 31 29  2  0  0  0
 31 30  2  0  0  0
  1 23  3  0  0  0
M  CHG  1  27  -1
M  END
> <rmsd>
0.706972957

$$$$
ZINC32961695


 31 33  0  0  0  0  0  0  0  0999 V2000
    7.5993    2.4919   -8.0215 C   0  0  0  0  0
    0.8687    2.5246   -2.5709 C   0  0  0  0  0
   -0.1072    2.5014   -1.5745 C   0  0  0  0  0
    0.8584    0.4770   -0.6762 C   0  0  0  0  0
   -3.3066   -3.1218   -0.7174 C   0  0  0  0  0
   -3.3758   -1.1949    0.7382 C   0  0  0  0  0
   -2.7429   -0.9363   -1.5791 C   0  0  0  0  0
    1.8342    0.5003   -1.6726 C   0  0  0  0  0
   -3.5406   -2.5657    0.5402 C   0  0  0  0  0
   -2.9078   -2.3072   -1.7771 C   0  0  0  0  0
    1.8393    1.5241   -2.6200 C   0  0  0  0  0
   -0.1122    1.4776   -0.6271 C   0  0  0  0  0
   -2.9769   -0.3801   -0.3215 C   0  0  0  0  0
    2.8492   -0.5697   -1.7019 C   0  0  0  0  0
    3.7053    2.7217   -3.7275 C   0  0  0  0  0
    2.5225    0.8732   -4.8903 C   0  0  0  0  0
    4.9647    2.3588   -4.5185 C   0  0  0  0  0
    3.8201    0.5693   -5.6429 C   0  0  0  0  0
   -3.9668   -3.4368    1.6731 C   0  0  0  0  0
   -2.6574   -2.9020   -3.1215 C   0  0  0  0  0
    6.3844    2.7605   -7.2379 C   0  0  0  0  0
    5.8305    1.4944   -6.5929 C   0  0  0  0  0
    8.5582    2.2820   -8.6402 N   0  0  0  0  0
    2.8094    1.5655   -3.6277 N   0  0  0  0  0
    4.6203    1.7867   -5.8257 N   0  0  0  0  0
   -1.1114    1.4541    0.3925 N   0  0  0  0  0
    2.6045   -1.6331   -2.3831 O   0  0  0  0  0
    3.9422   -0.4010   -1.0449 O   0  0  0  0  0
   -3.5971    1.7231    1.0634 O   0  0  0  0  0
   -2.9652    2.0178   -1.3477 O   0  0  0  0  0
   -2.7680    1.3594   -0.0706 S   0  0  0  0  0
  2 11  1  0  0  0
  3 12  1  0  0  0
  4  8  1  0  0  0
  5 10  1  0  0  0
  6  9  1  0  0  0
  7 13  1  0  0  0
  8 14  1  0  0  0
 11 24  1  0  0  0
 12 26  1  0  0  0
 14 27  1  0  0  0
 15 17  1  0  0  0
 15 24  1  0  0  0
 16 18  1  0  0  0
 16 24  1  0  0  0
 17 25  1  0  0  0
 18 25  1  0  0  0
 19  9  1  0  0  0
 20 10  1  0  0  0
 21  1  1  0  0  0
 21 22  1  0  0  0
 22 25  1  0  0  0
 31 13  1  0  0  0
 31 26  1  0  0  0
  2  3  2  0  0  0
  4 12  2  0  0  0
  5  9  2  0  0  0
  6 13  2  0  0  0
  7 10  2  0  0  0
  8 11  2  0  0  0
 14 28  2  0  0  0
 31 29  2  0  0  0
 31 30  2  0  0  0
  1 23  3  0  0  0
M  CHG  1  27  -1
M  END
> <rmsd>
0.526149333

$$$$
ZINC32962179


 31 34  0  0  0  0  0  0  0  0999 V2000
   -3.2401   -2.5858    0.4341 C   0  0  0  0  0
    1.0201    2.8829   -2.1909 C   0  0  0  0  0
   -0.0392    2.7663   -1.2910 C   0  0  0  0  0
   -3.2083   -1.2101    0.6605 C   0  0  0  0  0
    0.9942    0.8060   -0.3286 C   0  0  0  0  0
   -2.3851   -0.8639   -1.5807 C   0  0  0  0  0
    2.0535    0.9225   -1.2285 C   0  0  0  0  0
   -2.8369   -3.1165   -0.8006 C   0  0  0  0  0
   -2.4223   -2.2451   -1.8248 C   0  0  0  0  0
    2.0664    1.9609   -2.1598 C   0  0  0  0  0
   -0.0521    1.7279   -0.3598 C   0  0  0  0  0
   -2.7787   -0.3498   -0.3456 C   0  0  0  0  0
    3.1473   -0.0655   -1.1743 C   0  0  0  0  0
   -2.9176   -4.6070   -1.0184 C   0  0  0  0  0
   -1.9571   -2.7652   -3.1621 C   0  0  0  0  0
   -2.1135   -5.0845   -2.2260 C   0  0  0  0  0
   -2.3953   -4.2027   -3.4356 C   0  0  0  0  0
    2.8199    4.5334   -5.2009 C   0  0  0  0  0
    4.0950    4.8473   -4.4154 C   0  0  0  0  0
    2.8878    3.2646   -6.0534 C   0  0  0  0  0
    4.0870    4.3887   -2.9573 C   0  0  0  0  0
    2.2721    2.0207   -5.4129 C   0  0  0  0  0
    4.3111    2.8913   -2.7597 C   0  0  0  0  0
    3.1373    1.3620   -4.3410 C   0  0  0  0  0
    3.1192    2.0953   -3.0710 N   0  0  0  0  0
   -1.1367    1.6089    0.5611 N   0  0  0  0  0
    3.0510   -1.1319   -1.8873 O   0  0  0  0  0
    4.1580    0.1745   -0.4156 O   0  0  0  0  0
   -3.6874    1.6736    0.9983 O   0  0  0  0  0
   -2.8594    2.0604   -1.3393 O   0  0  0  0  0
   -2.7307    1.3958   -0.0567 S   0  0  0  0  0
  1  8  1  0  0  0
  2  3  1  0  0  0
  4 12  1  0  0  0
  5 11  1  0  0  0
  6  9  1  0  0  0
  7 10  1  0  0  0
  7 13  1  0  0  0
 10 25  1  0  0  0
 11 26  1  0  0  0
 13 27  1  0  0  0
 14  8  1  0  0  0
 14 16  1  0  0  0
 15  9  1  0  0  0
 15 17  1  0  0  0
 16 17  1  0  0  0
 18 19  1  0  0  0
 18 20  1  0  0  0
 19 21  1  0  0  0
 20 22  1  0  0  0
 21 23  1  0  0  0
 22 24  1  0  0  0
 23 25  1  0  0  0
 24 25  1  0  0  0
 31 12  1  0  0  0
 31 26  1  0  0  0
  1  4  2  0  0  0
  2 10  2  0  0  0
  3 11  2  0  0  0
  5  7  2  0  0  0
  6 12  2  0  0  0
  8  9  2  0  0  0
 13 28  2  0  0  0
 31 29  2  0  0  0
 31 30  2  0  0  0
M  CHG  1  27  -1
M  END
> <rmsd>
0.70927304

$$$$
ZINC32962179


 31 34  0  0  0  0  0  0  0  0999 V2000
   -3.5355   -2.5637    0.5400 C   0  0  0  0  0
    0.8676    2.5232   -2.5716 C   0  0  0  0  0
   -0.1081    2.5004   -1.5751 C   0  0  0  0  0
   -3.3765   -1.1923    0.7367 C   0  0  0  0  0
    0.8571    0.4761   -0.6764 C   0  0  0  0  0
   -2.7438   -0.9373   -1.5775 C   0  0  0  0  0
    1.8327    0.4988   -1.6730 C   0  0  0  0  0
   -3.2925   -3.1386   -0.7167 C   0  0  0  0  0
   -2.9102   -2.3141   -1.7912 C   0  0  0  0  0
    1.8379    1.5223   -2.6207 C   0  0  0  0  0
   -0.1133    1.4769   -0.6275 C   0  0  0  0  0
   -2.9785   -0.3799   -0.3209 C   0  0  0  0  0
    2.8473   -0.5713   -1.7023 C   0  0  0  0  0
   -3.5080   -4.6204   -0.8981 C   0  0  0  0  0
   -2.6145   -2.8843   -3.1559 C   0  0  0  0  0
   -2.8604   -5.1734   -2.1661 C   0  0  0  0  0
   -3.1861   -4.2860   -3.3606 C   0  0  0  0  0
    2.4978    3.9929   -5.7663 C   0  0  0  0  0
    3.8616    4.2147   -5.1088 C   0  0  0  0  0
    2.3871    2.7131   -6.5975 C   0  0  0  0  0
    3.9556    3.7747   -3.6480 C   0  0  0  0  0
    1.7404    1.5287   -5.8795 C   0  0  0  0  0
    4.0812    2.2666   -3.4441 C   0  0  0  0  0
    2.6492    0.8164   -4.8805 C   0  0  0  0  0
    2.8075    1.5633   -3.6283 N   0  0  0  0  0
   -1.1122    1.4540    0.3924 N   0  0  0  0  0
    2.6023   -1.6349   -2.3832 O   0  0  0  0  0
    3.9405   -0.4029   -1.0455 O   0  0  0  0  0
   -3.5978    1.7238    1.0635 O   0  0  0  0  0
   -2.9663    2.0177   -1.3477 O   0  0  0  0  0
   -2.7691    1.3597   -0.0705 S   0  0  0  0  0
  1  8  1  0  0  0
  2  3  1  0  0  0
  4 12  1  0  0  0
  5 11  1  0  0  0
  6  9  1  0  0  0
  7 10  1  0  0  0
  7 13  1  0  0  0
 10 25  1  0  0  0
 11 26  1  0  0  0
 13 27  1  0  0  0
 14  8  1  0  0  0
 14 16  1  0  0  0
 15  9  1  0  0  0
 15 17  1  0  0  0
 16 17  1  0  0  0
 18 19  1  0  0  0
 18 20  1  0  0  0
 19 21  1  0  0  0
 20 22  1  0  0  0
 21 23  1  0  0  0
 22 24  1  0  0  0
 23 25  1  0  0  0
 24 25  1  0  0  0
 31 12  1  0  0  0
 31 26  1  0  0  0
  1  4  2  0  0  0
  2 10  2  0  0  0
  3 11  2  0  0  0
  5  7  2  0  0  0
  6 12  2  0  0  0
  8  9  2  0  0  0
 13 28  2  0  0  0
 31 29  2  0  0  0
 31 30  2  0  0  0
M  CHG  1  27  -1
M  END
> <rmsd>
0.527917862

$$$$
ZINC20144786


 26 27  0  0  0  0  0  0  0  0999 V2000
   -2.7558   -0.8670    0.3873 C   0  0  0  0  0
   -5.0471   -0.3750   -0.2002 C   0  0  0  0  0
   -2.8887   -2.1421   -0.1623 C   0  0  0  0  0
   -5.1799   -1.6501   -0.7499 C   0  0  0  0  0
    0.8218    0.5495   -0.6484 C   0  0  0  0  0
    3.1120    0.6599    0.1131 C   0  0  0  0  0
    2.1601    0.1815   -0.7872 C   0  0  0  0  0
    0.4355    1.3962    0.3908 C   0  0  0  0  0
   -3.8351    0.0165    0.3685 C   0  0  0  0  0
    1.3874    1.8746    1.2910 C   0  0  0  0  0
    2.7256    1.5065    1.1523 C   0  0  0  0  0
   -4.1007   -2.5337   -0.7309 C   0  0  0  0  0
    2.5679   -0.7108   -1.8843 C   0  0  0  0  0
   -1.8709    1.8843   -0.4967 C   0  0  0  0  0
   -4.2758    2.4293   -1.1054 C   0  0  0  0  0
   -3.1772    3.5805    0.8525 C   0  0  0  0  0
    1.0197    4.1023    2.0381 C   0  0  0  0  0
   -3.2577    2.2981    0.0267 C   0  0  0  0  0
   -0.9272    1.7587    0.5172 N   0  0  0  0  0
    3.8098   -1.0351   -1.9904 O   0  0  0  0  0
    1.6696   -1.1378   -2.7026 O   0  0  0  0  0
   -1.6831    1.6986   -1.6974 O   0  0  0  0  0
    1.0021    2.7028    2.3056 O   0  0  0  0  0
   -3.7045    1.2672    0.9069 O   0  0  0  0  0
    3.9264    2.0826    2.2496 Cl  0  0  0  0  0
   -4.2807   -4.2613   -1.4755 Br  0  0  0  0  0
  1  9  1  0  0  0
  2  4  1  0  0  0
  3 12  1  0  0  0
  5  8  1  0  0  0
  6  7  1  0  0  0
  7 13  1  0  0  0
  8 19  1  0  0  0
  9 24  1  0  0  0
 10 11  1  0  0  0
 10 23  1  0  0  0
 11 25  1  0  0  0
 12 26  1  0  0  0
 13 20  1  0  0  0
 14 19  1  0  0  0
 15 18  1  0  0  0
 16 18  1  0  0  0
 17 23  1  0  0  0
 18 14  1  0  0  0
 18 24  1  0  0  0
  1  3  2  0  0  0
  2  9  2  0  0  0
  4 12  2  0  0  0
  5  7  2  0  0  0
  6 11  2  0  0  0
  8 10  2  0  0  0
 13 21  2  0  0  0
 14 22  2  0  0  0
M  CHG  1  20  -1
M  END
> <rmsd>
0.380757779

$$$$
ZINC16924732


 31 33  0  0  0  0  0  0  0  0999 V2000
   -4.3090   -2.8947   -1.3669 C   0  0  0  0  0
   -4.1302   -1.5534   -1.7054 C   0  0  0  0  0
   -3.9999   -3.3367   -0.0805 C   0  0  0  0  0
    2.2272   -1.5077    0.6096 C   0  0  0  0  0
    0.3894   -0.3006    1.6106 C   0  0  0  0  0
    1.2838    0.4092   -0.5185 C   0  0  0  0  0
   -3.3330   -1.0959    0.5289 C   0  0  0  0  0
    1.3165   -1.3418    1.6530 C   0  0  0  0  0
    2.2110   -0.6320   -0.4761 C   0  0  0  0  0
   -3.6423   -0.6541   -0.7575 C   0  0  0  0  0
    0.3731    0.5751    0.5249 C   0  0  0  0  0
   -3.5119   -2.4372    0.8674 C   0  0  0  0  0
   -3.5805    1.7492   -0.1555 C   0  0  0  0  0
   -3.1643    1.1198   -2.4082 C   0  0  0  0  0
    1.3334   -2.2659    2.7986 C   0  0  0  0  0
    3.1720   -0.8074   -1.5774 C   0  0  0  0  0
   -0.7223    2.5896   -0.5162 C   0  0  0  0  0
   -3.1949    3.0957   -0.7221 C   0  0  0  0  0
   -3.4173   -4.2528    2.4006 C   0  0  0  0  0
   -1.8533    3.5455   -0.1673 C   0  0  0  0  0
   -3.4577    0.7298   -1.1070 N   0  0  0  0  0
   -0.5669    1.6322    0.4821 N   0  0  0  0  0
    0.4821   -2.0905    3.7489 O   0  0  0  0  0
    3.1355    0.0145   -2.5681 O   0  0  0  0  0
   -3.9688    1.6506    1.0063 O   0  0  0  0  0
   -2.9188    0.4356   -3.3907 O   0  0  0  0  0
    2.1993   -3.2191    2.8132 O   0  0  0  0  0
    4.0171   -1.7770   -1.5138 O   0  0  0  0  0
   -0.0735    2.6995   -1.5513 O   0  0  0  0  0
   -3.2103   -2.8687    2.1226 O   0  0  0  0  0
   -3.1069    2.8709   -2.5079 S   0  0  0  0  0
  1  2  1  0  0  0
  3 12  1  0  0  0
  4  8  1  0  0  0
  5 11  1  0  0  0
  6  9  1  0  0  0
  7 10  1  0  0  0
  8 15  1  0  0  0
  9 16  1  0  0  0
 10 21  1  0  0  0
 11 22  1  0  0  0
 12 30  1  0  0  0
 13 21  1  0  0  0
 14 21  1  0  0  0
 14 31  1  0  0  0
 15 23  1  0  0  0
 16 24  1  0  0  0
 17 22  1  0  0  0
 18 13  1  0  0  0
 18 20  1  0  0  0
 18 31  1  0  0  0
 19 30  1  0  0  0
 20 17  1  0  0  0
  1  3  2  0  0  0
  2 10  2  0  0  0
  4  9  2  0  0  0
  5  8  2  0  0  0
  6 11  2  0  0  0
  7 12  2  0  0  0
 13 25  2  0  0  0
 14 26  2  0  0  0
 15 27  2  0  0  0
 16 28  2  0  0  0
 17 29  2  0  0  0
M  CHG  2  23  -1  24  -1
M  END
> <rmsd>
0.329811305

$$$$
ZINC16924559


 31 33  0  0  0  0  0  0  0  0999 V2000
   -2.7673   -2.9034   -0.5934 C   0  0  0  0  0
   -3.9851   -3.3421   -0.0736 C   0  0  0  0  0
    2.2321   -1.5150    0.6068 C   0  0  0  0  0
    1.3268   -1.3573    1.6563 C   0  0  0  0  0
   -2.5967   -1.5612   -0.9325 C   0  0  0  0  0
   -5.0322   -2.4385    0.1072 C   0  0  0  0  0
    1.2758    0.4040   -0.5067 C   0  0  0  0  0
    2.2067   -0.6343   -0.4746 C   0  0  0  0  0
    0.3959   -0.3191    1.6241 C   0  0  0  0  0
   -3.6440   -0.6577   -0.7519 C   0  0  0  0  0
    0.3704    0.5616    0.5427 C   0  0  0  0  0
   -4.8617   -1.0963   -0.2320 C   0  0  0  0  0
   -3.5749    1.7486   -0.1628 C   0  0  0  0  0
   -3.1507    1.1050   -2.4101 C   0  0  0  0  0
    3.1630   -0.8006   -1.5808 C   0  0  0  0  0
   -0.5498   -0.1758    2.7474 C   0  0  0  0  0
   -0.7115    2.5749   -0.5147 C   0  0  0  0  0
   -3.1810    3.0903   -0.7349 C   0  0  0  0  0
   -6.8040   -0.0638   -1.1358 C   0  0  0  0  0
   -1.8401    3.5375   -0.1764 C   0  0  0  0  0
   -3.4519    0.7235   -1.1081 N   0  0  0  0  0
   -0.5649    1.6224    0.4897 N   0  0  0  0  0
    3.1187    0.0256   -2.5679 O   0  0  0  0  0
   -0.2111    0.5577    3.7483 O   0  0  0  0  0
   -3.9691    1.6580    0.9976 O   0  0  0  0  0
   -2.9035    0.4144   -3.3876 O   0  0  0  0  0
    4.0126   -1.7670   -1.5258 O   0  0  0  0  0
   -1.6782   -0.7899    2.6852 O   0  0  0  0  0
   -0.0574    2.6765   -1.5472 O   0  0  0  0  0
   -5.8979   -0.2304   -0.0476 O   0  0  0  0  0
   -3.0855    2.8553   -2.5191 S   0  0  0  0  0
  1  2  1  0  0  0
  3  8  1  0  0  0
  4  9  1  0  0  0
  5 10  1  0  0  0
  6 12  1  0  0  0
  7 11  1  0  0  0
  8 15  1  0  0  0
  9 16  1  0  0  0
 10 21  1  0  0  0
 11 22  1  0  0  0
 12 30  1  0  0  0
 13 21  1  0  0  0
 14 21  1  0  0  0
 14 31  1  0  0  0
 15 23  1  0  0  0
 16 24  1  0  0  0
 17 22  1  0  0  0
 18 13  1  0  0  0
 18 20  1  0  0  0
 18 31  1  0  0  0
 19 30  1  0  0  0
 20 17  1  0  0  0
  1  5  2  0  0  0
  2  6  2  0  0  0
  3  4  2  0  0  0
  7  8  2  0  0  0
  9 11  2  0  0  0
 10 12  2  0  0  0
 13 25  2  0  0  0
 14 26  2  0  0  0
 15 27  2  0  0  0
 16 28  2  0  0  0
 17 29  2  0  0  0
M  CHG  2  23  -1  24  -1
M  END
> <rmsd>
0.329752535

$$$$
ZINC16924732


 31 33  0  0  0  0  0  0  0  0999 V2000
   -3.5116   -2.4364    0.8677 C   0  0  0  0  0
   -3.3327   -1.0952    0.5287 C   0  0  0  0  0
   -3.9996   -3.3362   -0.0798 C   0  0  0  0  0
    2.2274   -1.5075    0.6093 C   0  0  0  0  0
    0.3896   -0.3004    1.6103 C   0  0  0  0  0
    1.2841    0.4094   -0.5188 C   0  0  0  0  0
   -4.1300   -1.5537   -1.7054 C   0  0  0  0  0
    1.3168   -1.3416    1.6527 C   0  0  0  0  0
    2.2112   -0.6318   -0.4765 C   0  0  0  0  0
   -3.6420   -0.6539   -0.7578 C   0  0  0  0  0
    0.3734    0.5753    0.5245 C   0  0  0  0  0
   -4.3088   -2.8948   -1.3664 C   0  0  0  0  0
   -3.5802    1.7494   -0.1559 C   0  0  0  0  0
   -3.1640    1.1200   -2.4086 C   0  0  0  0  0
    1.3337   -2.2657    2.7982 C   0  0  0  0  0
    3.1723   -0.8072   -1.5778 C   0  0  0  0  0
   -0.7220    2.5898   -0.5166 C   0  0  0  0  0
   -3.1946    3.0959   -0.7224 C   0  0  0  0  0
   -5.0809   -3.2547   -3.5868 C   0  0  0  0  0
   -1.8530    3.5457   -0.1677 C   0  0  0  0  0
   -3.4574    0.7300   -1.1073 N   0  0  0  0  0
   -0.5666    1.6324    0.4818 N   0  0  0  0  0
    0.4824   -2.0903    3.7485 O   0  0  0  0  0
    3.1358    0.0147   -2.5685 O   0  0  0  0  0
   -3.9685    1.6508    1.0059 O   0  0  0  0  0
   -2.9185    0.4358   -3.3911 O   0  0  0  0  0
    2.1996   -3.2189    2.8128 O   0  0  0  0  0
    4.0174   -1.7768   -1.5141 O   0  0  0  0  0
   -0.0732    2.6997   -1.5516 O   0  0  0  0  0
   -4.7851   -3.7731   -2.2909 O   0  0  0  0  0
   -3.1066    2.8711   -2.5082 S   0  0  0  0  0
  1  2  1  0  0  0
  3 12  1  0  0  0
  4  8  1  0  0  0
  5 11  1  0  0  0
  6  9  1  0  0  0
  7 10  1  0  0  0
  8 15  1  0  0  0
  9 16  1  0  0  0
 10 21  1  0  0  0
 11 22  1  0  0  0
 12 30  1  0  0  0
 13 21  1  0  0  0
 14 21  1  0  0  0
 14 31  1  0  0  0
 15 23  1  0  0  0
 16 24  1  0  0  0
 17 22  1  0  0  0
 18 13  1  0  0  0
 18 20  1  0  0  0
 18 31  1  0  0  0
 19 30  1  0  0  0
 20 17  1  0  0  0
  1  3  2  0  0  0
  2 10  2  0  0  0
  4  9  2  0  0  0
  5  8  2  0  0  0
  6 11  2  0  0  0
  7 12  2  0  0  0
 13 25  2  0  0  0
 14 26  2  0  0  0
 15 27  2  0  0  0
 16 28  2  0  0  0
 17 29  2  0  0  0
M  CHG  2  23  -1  24  -1
M  END
> <rmsd>
0.329811305

$$$$
ZINC35397600


 31 34  0  0  0  0  0  0  0  0999 V2000
   -3.5645   -2.5578    0.5590 C   0  0  0  0  0
   -3.3970   -1.1862    0.7476 C   0  0  0  0  0
    0.8676    0.4563   -0.6599 C   0  0  0  0  0
   -2.7440   -0.9517   -1.5631 C   0  0  0  0  0
   -0.0606    2.4517   -1.5618 C   0  0  0  0  0
    1.8369    0.4931   -1.6561 C   0  0  0  0  0
   -3.3158   -3.1429   -0.6918 C   0  0  0  0  0
   -2.9189   -2.3286   -1.7687 C   0  0  0  0  0
   -0.1028    1.4505   -0.6049 C   0  0  0  0  0
   -2.9846   -0.3839   -0.3123 C   0  0  0  0  0
    1.7923    1.5371   -2.5660 C   0  0  0  0  0
    2.8640   -0.5613   -1.7123 C   0  0  0  0  0
   -3.5408   -4.6243   -0.8649 C   0  0  0  0  0
   -2.6167   -2.9102   -3.1273 C   0  0  0  0  0
   -2.8872   -5.1907   -2.1241 C   0  0  0  0  0
   -3.1968   -4.3090   -3.3270 C   0  0  0  0  0
    2.4596    4.0156   -5.7038 C   0  0  0  0  0
    3.8216    4.2359   -5.0423 C   0  0  0  0  0
    2.3511    2.7378   -6.5385 C   0  0  0  0  0
    3.9120    3.7922   -3.5824 C   0  0  0  0  0
    1.7027    1.5515   -5.8250 C   0  0  0  0  0
    4.0375    2.2837   -3.3819 C   0  0  0  0  0
    2.6093    0.8369   -4.8254 C   0  0  0  0  0
    0.8652    2.5209   -2.5445 N   0  0  0  0  0
    2.7643    1.5807   -3.5710 N   0  0  0  0  0
   -1.1094    1.4398    0.4038 N   0  0  0  0  0
    2.6276   -1.6187   -2.4076 O   0  0  0  0  0
    3.9628   -0.3900   -1.0639 O   0  0  0  0  0
   -3.6007    1.7339    1.0519 O   0  0  0  0  0
   -2.9450    2.0063   -1.3554 O   0  0  0  0  0
   -2.7644    1.3557   -0.0719 S   0  0  0  0  0
  1  2  1  0  0  0
  3  9  1  0  0  0
  4 10  1  0  0  0
  5 24  1  0  0  0
  6 11  1  0  0  0
  6 12  1  0  0  0
  7  8  1  0  0  0
  9 26  1  0  0  0
 11 25  1  0  0  0
 12 27  1  0  0  0
 13  7  1  0  0  0
 13 15  1  0  0  0
 14  8  1  0  0  0
 14 16  1  0  0  0
 15 16  1  0  0  0
 17 18  1  0  0  0
 17 19  1  0  0  0
 18 20  1  0  0  0
 19 21  1  0  0  0
 20 22  1  0  0  0
 21 23  1  0  0  0
 22 25  1  0  0  0
 23 25  1  0  0  0
 31 10  1  0  0  0
 31 26  1  0  0  0
  1  7  2  0  0  0
  2 10  2  0  0  0
  3  6  2  0  0  0
  4  8  2  0  0  0
  5  9  2  0  0  0
 11 24  2  0  0  0
 12 28  2  0  0  0
 31 29  2  0  0  0
 31 30  2  0  0  0
M  CHG  1  27  -1
M  END
> <rmsd>
0.512526095

$$$$
ZINC35397600


 31 34  0  0  0  0  0  0  0  0999 V2000
   -3.2739   -2.5818    0.4531 C   0  0  0  0  0
   -3.2322   -1.2050    0.6714 C   0  0  0  0  0
    1.0041    0.7843   -0.3096 C   0  0  0  0  0
   -2.3867   -0.8797   -1.5647 C   0  0  0  0  0
    0.0114    2.7186   -1.2736 C   0  0  0  0  0
    2.0563    0.9131   -1.2094 C   0  0  0  0  0
   -2.8648   -3.1236   -0.7748 C   0  0  0  0  0
   -2.4339   -2.2620   -1.8007 C   0  0  0  0  0
   -0.0417    1.7001   -0.3358 C   0  0  0  0  0
   -2.7865   -0.3546   -0.3361 C   0  0  0  0  0
    2.0155    1.9668   -2.1082 C   0  0  0  0  0
    3.1631   -0.0584   -1.1797 C   0  0  0  0  0
   -2.9565   -4.6145   -0.9843 C   0  0  0  0  0
   -1.9618   -2.7942   -3.1308 C   0  0  0  0  0
   -2.1462   -5.1064   -2.1821 C   0  0  0  0  0
   -2.4099   -4.2295   -3.3994 C   0  0  0  0  0
    2.7774    4.5452   -5.1422 C   0  0  0  0  0
    4.0504    4.8573   -4.3528 C   0  0  0  0  0
    2.8471    3.2781   -5.9971 C   0  0  0  0  0
    4.0386    4.3956   -2.8957 C   0  0  0  0  0
    2.2294    2.0331   -5.3608 C   0  0  0  0  0
    4.2620    2.8978   -2.7005 C   0  0  0  0  0
    3.0918    1.3720   -4.2878 C   0  0  0  0  0
    1.0167    2.8762   -2.1637 N   0  0  0  0  0
    3.0707    2.1028   -3.0164 N   0  0  0  0  0
   -1.1341    1.5942    0.5733 N   0  0  0  0  0
    3.0758   -1.1180   -1.9055 O   0  0  0  0  0
    4.1800    0.1849   -0.4287 O   0  0  0  0  0
   -3.6902    1.6849    0.9864 O   0  0  0  0  0
   -2.8362    2.0500   -1.3451 O   0  0  0  0  0
   -2.7259    1.3921   -0.0574 S   0  0  0  0  0
  1  2  1  0  0  0
  3  9  1  0  0  0
  4 10  1  0  0  0
  5 24  1  0  0  0
  6 11  1  0  0  0
  6 12  1  0  0  0
  7  8  1  0  0  0
  9 26  1  0  0  0
 11 25  1  0  0  0
 12 27  1  0  0  0
 13  7  1  0  0  0
 13 15  1  0  0  0
 14  8  1  0  0  0
 14 16  1  0  0  0
 15 16  1  0  0  0
 17 18  1  0  0  0
 17 19  1  0  0  0
 18 20  1  0  0  0
 19 21  1  0  0  0
 20 22  1  0  0  0
 21 23  1  0  0  0
 22 25  1  0  0  0
 23 25  1  0  0  0
 31 10  1  0  0  0
 31 26  1  0  0  0
  1  7  2  0  0  0
  2 10  2  0  0  0
  3  6  2  0  0  0
  4  8  2  0  0  0
  5  9  2  0  0  0
 11 24  2  0  0  0
 12 28  2  0  0  0
 31 29  2  0  0  0
 31 30  2  0  0  0
M  CHG  1  27  -1
M  END
> <rmsd>
0.691737294

$$$$
ZINC35397446


 28 30  0  0  0  0  0  0  0  0999 V2000
   -3.2316   -1.2073    0.6744 C   0  0  0  0  0
   -3.2823   -2.5838    0.4544 C   0  0  0  0  0
    1.0047    0.7856   -0.3094 C   0  0  0  0  0
   -2.3896   -0.8802   -1.5663 C   0  0  0  0  0
    0.0109    2.7193   -1.2736 C   0  0  0  0  0
    2.0569    0.9150   -1.2091 C   0  0  0  0  0
   -0.0417    1.7008   -0.3357 C   0  0  0  0  0
   -2.7853   -0.3555   -0.3360 C   0  0  0  0  0
   -2.8865   -3.1084   -0.7759 C   0  0  0  0  0
   -2.4401   -2.2567   -1.7863 C   0  0  0  0  0
    2.0154    1.9686   -2.1080 C   0  0  0  0  0
    3.1642   -0.0559   -1.1793 C   0  0  0  0  0
    4.2925    4.1281   -4.9088 C   0  0  0  0  0
    3.6850    3.1936   -5.9540 C   0  0  0  0  0
    5.0876    3.3929   -3.8296 C   0  0  0  0  0
    2.6020    2.2539   -5.4275 C   0  0  0  0  0
    4.2391    2.9124   -2.6507 C   0  0  0  0  0
    3.0686    1.3628   -4.2783 C   0  0  0  0  0
    1.0160    2.8773   -2.1637 N   0  0  0  0  0
    3.0715    2.1052   -3.0171 N   0  0  0  0  0
   -1.1340    1.5944    0.5733 N   0  0  0  0  0
    3.0775   -1.1156   -1.9050 O   0  0  0  0  0
    4.1808    0.1882   -0.4283 O   0  0  0  0  0
   -3.6903    1.6837    0.9864 O   0  0  0  0  0
   -2.8363    2.0490   -1.3453 O   0  0  0  0  0
   -2.7257    1.3913   -0.0574 S   0  0  0  0  0
   -2.9709   -4.8224   -0.9863 Cl  0  0  0  0  0
   -1.9371   -2.8465   -3.3317 Cl  0  0  0  0  0
  1  2  1  0  0  0
  3  7  1  0  0  0
  4  8  1  0  0  0
  5 19  1  0  0  0
  6 11  1  0  0  0
  6 12  1  0  0  0
  7 21  1  0  0  0
  9 10  1  0  0  0
  9 27  1  0  0  0
 10 28  1  0  0  0
 11 20  1  0  0  0
 12 22  1  0  0  0
 13 14  1  0  0  0
 13 15  1  0  0  0
 14 16  1  0  0  0
 15 17  1  0  0  0
 16 18  1  0  0  0
 17 20  1  0  0  0
 18 20  1  0  0  0
 26  8  1  0  0  0
 26 21  1  0  0  0
  1  8  2  0  0  0
  2  9  2  0  0  0
  3  6  2  0  0  0
  4 10  2  0  0  0
  5  7  2  0  0  0
 11 19  2  0  0  0
 12 23  2  0  0  0
 26 24  2  0  0  0
 26 25  2  0  0  0
M  CHG  1  22  -1
M  END
> <rmsd>
0.687543988

$$$$
ZINC35397446


 28 30  0  0  0  0  0  0  0  0999 V2000
   -3.3963   -1.1885    0.7503 C   0  0  0  0  0
   -3.5728   -2.5591    0.5607 C   0  0  0  0  0
    0.8686    0.4576   -0.6590 C   0  0  0  0  0
   -2.7464   -0.9519   -1.5646 C   0  0  0  0  0
   -0.0605    2.4525   -1.5611 C   0  0  0  0  0
    1.8383    0.4951   -1.6548 C   0  0  0  0  0
   -0.1024    1.4513   -0.6042 C   0  0  0  0  0
   -2.9832   -0.3849   -0.3124 C   0  0  0  0  0
   -3.3360   -3.1261   -0.6915 C   0  0  0  0  0
   -2.9227   -2.3225   -1.7542 C   0  0  0  0  0
    1.7931    1.5390   -2.5648 C   0  0  0  0  0
    2.8659   -0.5588   -1.7107 C   0  0  0  0  0
    3.9551    3.4845   -5.6035 C   0  0  0  0  0
    3.1822    2.5891   -6.5707 C   0  0  0  0  0
    4.7896    2.7011   -4.5899 C   0  0  0  0  0
    2.0848    1.7423   -5.9289 C   0  0  0  0  0
    4.0216    2.3009   -3.3288 C   0  0  0  0  0
    2.5879    0.8299   -4.8124 C   0  0  0  0  0
    0.8655    2.5222   -2.5435 N   0  0  0  0  0
    2.7663    1.5832   -3.5704 N   0  0  0  0  0
   -1.1092    1.4401    0.4042 N   0  0  0  0  0
    2.6303   -1.6162   -2.4061 O   0  0  0  0  0
    3.9644   -0.3866   -1.0621 O   0  0  0  0  0
   -3.6009    1.7326    1.0516 O   0  0  0  0  0
   -2.9447    2.0054   -1.3555 O   0  0  0  0  0
   -2.7641    1.3549   -0.0719 S   0  0  0  0  0
   -3.5707   -4.8304   -0.8624 Cl  0  0  0  0  0
   -2.6141   -2.9662   -3.3288 Cl  0  0  0  0  0
  1  2  1  0  0  0
  3  7  1  0  0  0
  4  8  1  0  0  0
  5 19  1  0  0  0
  6 11  1  0  0  0
  6 12  1  0  0  0
  7 21  1  0  0  0
  9 10  1  0  0  0
  9 27  1  0  0  0
 10 28  1  0  0  0
 11 20  1  0  0  0
 12 22  1  0  0  0
 13 14  1  0  0  0
 13 15  1  0  0  0
 14 16  1  0  0  0
 15 17  1  0  0  0
 16 18  1  0  0  0
 17 20  1  0  0  0
 18 20  1  0  0  0
 26  8  1  0  0  0
 26 21  1  0  0  0
  1  8  2  0  0  0
  2  9  2  0  0  0
  3  6  2  0  0  0
  4 10  2  0  0  0
  5  7  2  0  0  0
 11 19  2  0  0  0
 12 23  2  0  0  0
 26 24  2  0  0  0
 26 25  2  0  0  0
M  CHG  1  22  -1
M  END
> <rmsd>
0.508878827

$$$$
ZINC21125142


 31 33  0  0  0  0  0  0  0  0999 V2000
   -2.2783    4.9149   -1.1462 C   0  0  0  0  0
   -0.8877    4.8513   -1.0578 C   0  0  0  0  0
   -3.0537    3.8326   -0.7303 C   0  0  0  0  0
   -0.2726    3.7054   -0.5537 C   0  0  0  0  0
    3.2382   -3.8121    1.8763 C   0  0  0  0  0
    2.7419   -2.5130    1.9826 C   0  0  0  0  0
    4.5756   -3.1459   -0.0224 C   0  0  0  0  0
   -5.0742   -2.4706    0.3307 C   0  0  0  0  0
   -4.3632   -3.1731   -0.6196 C   0  0  0  0  0
   -2.4386    2.6866   -0.2263 C   0  0  0  0  0
   -1.0480    2.6230   -0.1379 C   0  0  0  0  0
    4.1551   -4.1287    0.8738 C   0  0  0  0  0
    4.0792   -1.8467    0.0840 C   0  0  0  0  0
    3.1623   -1.5302    1.0865 C   0  0  0  0  0
   -3.7279   -0.8683   -0.3249 C   0  0  0  0  0
   -3.2780    1.5738    0.1995 C   0  0  0  0  0
    0.9635    1.2615    0.5140 C   0  0  0  0  0
    1.2587   -0.1047    1.0938 C   0  0  0  0  0
   -4.7111   -1.1490    0.5014 N   0  0  0  0  0
   -0.4099    1.4845    0.3621 N   0  0  0  0  0
   -3.0547    0.3693   -0.4828 N   0  0  0  0  0
    4.6603   -5.4515    0.7669 N   0  0  0  0  0
    4.5183   -0.8570   -0.8383 N   0  0  0  0  0
    4.2688   -6.3196    1.5839 O   0  0  0  0  0
    3.8785   -0.6963   -1.9044 O   0  0  0  0  0
   -4.1414    1.7111    1.0749 O   0  0  0  0  0
    1.8787    2.0280    0.2290 O   0  0  0  0  0
    5.4839   -5.7162   -0.1419 O   0  0  0  0  0
    5.5318   -0.1746   -0.5578 O   0  0  0  0  0
    2.6581   -0.2576    1.2112 O   0  0  0  0  0
   -3.1910   -2.1466   -1.3363 S   0  0  0  0  0
  1  2  1  0  0  0
  3 10  1  0  0  0
  4 11  1  0  0  0
  5 12  1  0  0  0
  6 14  1  0  0  0
  7 13  1  0  0  0
  8 19  1  0  0  0
  9 31  1  0  0  0
 10 16  1  0  0  0
 11 20  1  0  0  0
 12 22  1  0  0  0
 13 23  1  0  0  0
 14 30  1  0  0  0
 15 21  1  0  0  0
 15 31  1  0  0  0
 16 21  1  0  0  0
 17 20  1  0  0  0
 18 17  1  0  0  0
 18 30  1  0  0  0
 22 24  1  0  0  0
 23 25  1  0  0  0
  1  3  2  0  0  0
  2  4  2  0  0  0
  5  6  2  0  0  0
  7 12  2  0  0  0
  8  9  2  0  0  0
 10 11  2  0  0  0
 13 14  2  0  0  0
 15 19  2  0  0  0
 16 26  2  0  0  0
 17 27  2  0  0  0
 22 28  2  0  0  0
 23 29  2  0  0  0
M  CHG  4  22   1  23   1  24  -1  25  -1
M  END
> <rmsd>
0.469960958

$$$$
ZINC09557286


 33 37  0  0  0  0  0  0  0  0999 V2000
   -0.0084    1.9168   -6.2782 C   0  0  0  0  0
    0.3677    3.2308   -5.9995 C   0  0  0  0  0
   -0.8236    1.2204   -5.3858 C   0  0  0  0  0
    2.7235    2.9213    0.4393 C   0  0  0  0  0
    2.6706    3.7320   -0.7117 C   0  0  0  0  0
   -0.0714    3.8484   -4.8285 C   0  0  0  0  0
   -1.2626    1.8381   -4.2147 C   0  0  0  0  0
    1.5945    2.2288    0.8834 C   0  0  0  0  0
    1.4877    3.8688   -1.4455 C   0  0  0  0  0
   -3.7934   -1.4819    0.4817 C   0  0  0  0  0
   -3.4228   -2.5853   -0.3236 C   0  0  0  0  0
    0.0165   -2.0872   -3.8349 C   0  0  0  0  0
   -0.8866    3.1521   -3.9361 C   0  0  0  0  0
    0.4377    2.3733    0.1511 C   0  0  0  0  0
    0.3769    3.1828   -1.0024 C   0  0  0  0  0
   -3.3768   -0.3588   -0.1942 C   0  0  0  0  0
   -2.8064   -2.0576   -1.4343 C   0  0  0  0  0
    1.3266   -1.8321   -2.2300 C   0  0  0  0  0
   -1.6888    2.2602   -0.6677 C   0  0  0  0  0
   -3.4784    1.0916    0.1400 C   0  0  0  0  0
   -1.3589    3.8168   -2.6755 C   0  0  0  0  0
   -2.2032   -2.6602   -2.6315 C   0  0  0  0  0
    1.3163   -1.7887   -3.5420 N   0  0  0  0  0
    0.0839   -2.1431   -1.7727 N   0  0  0  0  0
   -2.9378    1.9421   -0.7964 N   0  0  0  0  0
   -0.7784   -2.3126   -2.7866 N   0  0  0  0  0
   -0.8288    1.8152    0.3452 N   0  0  0  0  0
   -0.9280    3.1071   -1.4973 N   0  0  0  0  0
    2.4001   -1.6080   -1.3768 N   0  0  0  0  0
    3.5429   -1.3214   -1.8503 O   0  0  0  0  0
   -4.0190    1.4181    1.1933 O   0  0  0  0  0
    2.2439   -1.6884   -0.1192 O   0  0  0  0  0
   -2.7742   -0.7010   -1.3632 O   0  0  0  0  0
  1  2  1  0  0  0
  3  7  1  0  0  0
  4  5  1  0  0  0
  6 13  1  0  0  0
  8 14  1  0  0  0
  9 15  1  0  0  0
 10 11  1  0  0  0
 12 26  1  0  0  0
 14 27  1  0  0  0
 15 28  1  0  0  0
 16 20  1  0  0  0
 16 33  1  0  0  0
 17 33  1  0  0  0
 18 23  1  0  0  0
 18 29  1  0  0  0
 19 27  1  0  0  0
 19 28  1  0  0  0
 20 25  1  0  0  0
 21 13  1  0  0  0
 21 28  1  0  0  0
 22 17  1  0  0  0
 22 26  1  0  0  0
 26 24  1  0  0  0
 29 30  1  0  0  0
  1  3  2  0  0  0
  2  6  2  0  0  0
  4  8  2  0  0  0
  5  9  2  0  0  0
  7 13  2  0  0  0
 10 16  2  0  0  0
 11 17  2  0  0  0
 12 23  2  0  0  0
 14 15  2  0  0  0
 18 24  2  0  0  0
 19 25  2  0  0  0
 20 31  2  0  0  0
 29 32  2  0  0  0
M  CHG  2  29   1  30  -1
M  END
> <rmsd>
0.491025656

$$$$
ZINC16926402


 31 33  0  0  0  0  0  0  0  0999 V2000
   -3.3963   -2.4439    0.7167 C   0  0  0  0  0
   -4.2916   -2.8051   -1.4979 C   0  0  0  0  0
   -3.3054   -1.0765    0.4570 C   0  0  0  0  0
   -4.2008   -1.4377   -1.7576 C   0  0  0  0  0
    2.2739   -1.1740    0.1948 C   0  0  0  0  0
    1.4226   -1.1349    1.2990 C   0  0  0  0  0
    1.1550    0.7542   -0.7362 C   0  0  0  0  0
   -3.8893   -3.3082   -0.2607 C   0  0  0  0  0
   -3.7077   -0.5733   -0.7802 C   0  0  0  0  0
    0.3037    0.7934    0.3680 C   0  0  0  0  0
    2.1402   -0.2295   -0.8229 C   0  0  0  0  0
    0.4375   -0.1513    1.3856 C   0  0  0  0  0
   -3.7369    1.7879   -0.0281 C   0  0  0  0  0
   -3.4143    1.3228   -2.3354 C   0  0  0  0  0
   -0.9503    2.8050   -0.4821 C   0  0  0  0  0
   -3.4534    3.1860   -0.5257 C   0  0  0  0  0
   -1.5640   -7.7611   -0.5577 C   0  0  0  0  0
   -3.9867   -4.7867    0.0195 C   0  0  0  0  0
   -2.1080    3.6738   -0.0137 C   0  0  0  0  0
   -2.8209   -7.0227   -0.1260 C   0  0  0  0  0
   -2.7029   -5.5198   -0.3794 C   0  0  0  0  0
   -3.6145    0.8375   -1.0486 N   0  0  0  0  0
   -0.6905    1.7977    0.4427 N   0  0  0  0  0
    3.0079   -0.2691   -1.9463 N   0  0  0  0  0
    3.8877   -1.1618   -2.0036 O   0  0  0  0  0
   -4.0545    1.5965    1.1435 O   0  0  0  0  0
   -3.1887    0.7152   -3.3716 O   0  0  0  0  0
   -0.3665    3.0142   -1.5403 O   0  0  0  0  0
    2.8707    0.5894   -2.8510 O   0  0  0  0  0
   -0.3841   -0.1304    2.4729 O   0  0  0  0  0
   -3.4530    3.0772   -2.3245 S   0  0  0  0  0
  1  8  1  0  0  0
  2  4  1  0  0  0
  3  9  1  0  0  0
  5 11  1  0  0  0
  6 12  1  0  0  0
  7 10  1  0  0  0
  9 22  1  0  0  0
 10 23  1  0  0  0
 11 24  1  0  0  0
 12 30  1  0  0  0
 13 22  1  0  0  0
 14 22  1  0  0  0
 14 31  1  0  0  0
 15 23  1  0  0  0
 16 13  1  0  0  0
 16 19  1  0  0  0
 16 31  1  0  0  0
 17 20  1  0  0  0
 18  8  1  0  0  0
 18 21  1  0  0  0
 19 15  1  0  0  0
 20 21  1  0  0  0
 24 25  1  0  0  0
  1  3  2  0  0  0
  2  8  2  0  0  0
  4  9  2  0  0  0
  5  6  2  0  0  0
  7 11  2  0  0  0
 10 12  2  0  0  0
 13 26  2  0  0  0
 14 27  2  0  0  0
 15 28  2  0  0  0
 24 29  2  0  0  0
M  CHG  2  24   1  25  -1
M  END
> <rmsd>
0.400585562

$$$$
ZINC16926402


 31 33  0  0  0  0  0  0  0  0999 V2000
   -4.2905   -2.8053   -1.4972 C   0  0  0  0  0
   -3.3951   -2.4428    0.7174 C   0  0  0  0  0
   -4.2006   -1.4379   -1.7573 C   0  0  0  0  0
   -3.3051   -1.0753    0.4571 C   0  0  0  0  0
    2.2736   -1.1746    0.1948 C   0  0  0  0  0
    1.4223   -1.1357    1.2991 C   0  0  0  0  0
    1.1550    0.7539   -0.7358 C   0  0  0  0  0
   -3.8878   -3.3077   -0.2597 C   0  0  0  0  0
   -3.7079   -0.5729   -0.7803 C   0  0  0  0  0
    0.3037    0.7930    0.3684 C   0  0  0  0  0
    2.1401   -0.2298   -0.8226 C   0  0  0  0  0
    0.4373   -0.1519    1.3858 C   0  0  0  0  0
   -3.7368    1.7882   -0.0277 C   0  0  0  0  0
   -3.4142    1.3234   -2.3352 C   0  0  0  0  0
   -0.9500    2.8050   -0.4814 C   0  0  0  0  0
   -3.4530    3.1863   -0.5250 C   0  0  0  0  0
   -6.7520   -7.0098    1.5879 C   0  0  0  0  0
   -3.9858   -4.7858    0.0221 C   0  0  0  0  0
   -2.1076    3.6738   -0.0129 C   0  0  0  0  0
   -5.4223   -6.6464    0.9466 C   0  0  0  0  0
   -5.3423   -5.1529    0.6303 C   0  0  0  0  0
   -3.6145    0.8380   -1.0484 N   0  0  0  0  0
   -0.6904    1.7975    0.4433 N   0  0  0  0  0
    3.0078   -0.2694   -1.9460 N   0  0  0  0  0
    3.8875   -1.1622   -2.0035 O   0  0  0  0  0
   -4.0545    1.5965    1.1438 O   0  0  0  0  0
   -3.1886    0.7160   -3.3714 O   0  0  0  0  0
   -0.3661    3.0144   -1.5395 O   0  0  0  0  0
    2.8707    0.5893   -2.8506 O   0  0  0  0  0
   -0.3844   -0.1311    2.4731 O   0  0  0  0  0
   -3.4526    3.0778   -2.3238 S   0  0  0  0  0
  1  8  1  0  0  0
  2  4  1  0  0  0
  3  9  1  0  0  0
  5 11  1  0  0  0
  6 12  1  0  0  0
  7 10  1  0  0  0
  9 22  1  0  0  0
 10 23  1  0  0  0
 11 24  1  0  0  0
 12 30  1  0  0  0
 13 22  1  0  0  0
 14 22  1  0  0  0
 14 31  1  0  0  0
 15 23  1  0  0  0
 16 13  1  0  0  0
 16 19  1  0  0  0
 16 31  1  0  0  0
 17 20  1  0  0  0
 18  8  1  0  0  0
 18 21  1  0  0  0
 19 15  1  0  0  0
 20 21  1  0  0  0
 24 25  1  0  0  0
  1  3  2  0  0  0
  2  8  2  0  0  0
  4  9  2  0  0  0
  5  6  2  0  0  0
  7 11  2  0  0  0
 10 12  2  0  0  0
 13 26  2  0  0  0
 14 27  2  0  0  0
 15 28  2  0  0  0
 24 29  2  0  0  0
M  CHG  2  24   1  25  -1
M  END
> <rmsd>
0.40061757

$$$$
ZINC03884797


 27 29  0  0  0  0  0  0  0  0999 V2000
   -2.2861    0.7026   -5.3253 C   0  0  0  0  0
   -3.2982   -2.4923   -1.3037 C   0  0  0  0  0
   -0.8968    1.0107   -5.3977 C   0  0  0  0  0
   -3.1637   -1.0989   -1.5689 C   0  0  0  0  0
    1.8946    1.5673   -2.5501 C   0  0  0  0  0
    0.8653    0.4607   -0.6653 C   0  0  0  0  0
   -0.0621    2.5267   -1.5073 C   0  0  0  0  0
   -3.0470    1.8107   -5.0246 C   0  0  0  0  0
   -3.2167   -2.7732    0.0424 C   0  0  0  0  0
    1.8607    0.5099   -1.6413 C   0  0  0  0  0
    0.9333    2.5758   -2.4832 C   0  0  0  0  0
   -0.0962    1.4692   -0.5983 C   0  0  0  0  0
   -0.6490    2.3431   -5.1497 C   0  0  0  0  0
   -2.9846   -0.3677   -0.4152 C   0  0  0  0  0
    2.8749   -0.5545   -1.7125 C   0  0  0  0  0
    0.9674    3.6579   -3.4139 N   0  0  0  0  0
   -1.1149    1.4193    0.4007 N   0  0  0  0  0
    2.8214   -1.5195   -0.8613 O   0  0  0  0  0
    3.7826   -0.4856   -2.6234 O   0  0  0  0  0
    0.5555    4.5424   -5.8116 O   0  0  0  0  0
    1.9304    2.4632   -5.5182 O   0  0  0  0  0
   -3.6103    1.6902    1.0339 O   0  0  0  0  0
   -2.9291    2.0658   -1.3524 O   0  0  0  0  0
   -2.0874    3.2157   -4.8310 S   0  0  0  0  0
   -2.9789   -1.3602    0.9802 S   0  0  0  0  0
    0.8320    3.3109   -5.0959 S   0  0  0  0  0
   -2.7632    1.3593   -0.0968 S   0  0  0  0  0
  1  3  1  0  0  0
  2  4  1  0  0  0
  5 11  1  0  0  0
  6 10  1  0  0  0
  7 12  1  0  0  0
  8 24  1  0  0  0
  9 25  1  0  0  0
 10 15  1  0  0  0
 11 16  1  0  0  0
 12 17  1  0  0  0
 13 24  1  0  0  0
 14 25  1  0  0  0
 15 18  1  0  0  0
 26 13  1  0  0  0
 26 16  1  0  0  0
 27 14  1  0  0  0
 27 17  1  0  0  0
  1  8  2  0  0  0
  2  9  2  0  0  0
  3 13  2  0  0  0
  4 14  2  0  0  0
  5 10  2  0  0  0
  6 12  2  0  0  0
  7 11  2  0  0  0
 15 19  2  0  0  0
 26 20  2  0  0  0
 26 21  2  0  0  0
 27 22  2  0  0  0
 27 23  2  0  0  0
M  CHG  1  18  -1
M  END
> <rmsd>
0.498019308

$$$$
ZINC03884797


 27 29  0  0  0  0  0  0  0  0999 V2000
   -3.3367   -2.7318    0.0445 C   0  0  0  0  0
   -2.4723    0.2183   -5.2246 C   0  0  0  0  0
   -3.3241   -1.4495    0.6655 C   0  0  0  0  0
   -1.0953    0.5532   -5.3710 C   0  0  0  0  0
    0.8365    0.4477   -0.6735 C   0  0  0  0  0
    1.7722    1.4158   -2.6795 C   0  0  0  0  0
   -0.1744    2.4118   -1.6520 C   0  0  0  0  0
   -3.0009   -2.6639   -1.2898 C   0  0  0  0  0
   -3.2529    1.3290   -4.9909 C   0  0  0  0  0
    1.7972    0.4384   -1.6846 C   0  0  0  0  0
   -0.1494    1.4344   -0.6571 C   0  0  0  0  0
    0.7864    2.4025   -2.6632 C   0  0  0  0  0
   -2.9789   -0.4502   -0.2179 C   0  0  0  0  0
   -0.8757    1.9073   -5.2439 C   0  0  0  0  0
    2.8377   -0.6026   -1.7013 C   0  0  0  0  0
   -1.1325    1.4446    0.3781 N   0  0  0  0  0
    0.7604    3.4029   -3.6816 N   0  0  0  0  0
    3.7128   -0.5890   -2.6461 O   0  0  0  0  0
    2.8386   -1.4929   -0.7708 O   0  0  0  0  0
   -3.6118    1.7073    1.0746 O   0  0  0  0  0
   -3.0212    1.8956   -1.3575 O   0  0  0  0  0
    0.2460    4.0717   -6.1288 O   0  0  0  0  0
    1.6859    2.0588   -5.7113 O   0  0  0  0  0
   -2.6722   -1.0591   -1.7887 S   0  0  0  0  0
   -2.3261    2.7683   -4.9490 S   0  0  0  0  0
   -2.7942    1.3024   -0.0537 S   0  0  0  0  0
    0.5793    2.9119   -5.3229 S   0  0  0  0  0
  1  3  1  0  0  0
  2  4  1  0  0  0
  5 11  1  0  0  0
  6 10  1  0  0  0
  7 12  1  0  0  0
  8 24  1  0  0  0
  9 25  1  0  0  0
 10 15  1  0  0  0
 11 16  1  0  0  0
 12 17  1  0  0  0
 13 24  1  0  0  0
 14 25  1  0  0  0
 15 18  1  0  0  0
 26 13  1  0  0  0
 26 16  1  0  0  0
 27 14  1  0  0  0
 27 17  1  0  0  0
  1  8  2  0  0  0
  2  9  2  0  0  0
  3 13  2  0  0  0
  4 14  2  0  0  0
  5 10  2  0  0  0
  6 12  2  0  0  0
  7 11  2  0  0  0
 15 19  2  0  0  0
 26 20  2  0  0  0
 26 21  2  0  0  0
 27 22  2  0  0  0
 27 23  2  0  0  0
M  CHG  1  18  -1
M  END
> <rmsd>
0.555758059

$$$$
ZINC03884797


 27 29  0  0  0  0  0  0  0  0999 V2000
   -3.2993   -2.4922   -1.3034 C   0  0  0  0  0
   -1.2558    0.2016   -5.8787 C   0  0  0  0  0
   -3.1647   -1.0988   -1.5686 C   0  0  0  0  0
   -1.5410    1.3296   -5.0563 C   0  0  0  0  0
    0.8646    0.4606   -0.6656 C   0  0  0  0  0
    1.8942    1.5676   -2.5500 C   0  0  0  0  0
   -0.0626    2.5268   -1.5070 C   0  0  0  0  0
   -3.2175   -2.7731    0.0427 C   0  0  0  0  0
   -0.0960    0.3691   -6.6028 C   0  0  0  0  0
    1.8600    0.5099   -1.6413 C   0  0  0  0  0
   -0.0968    1.4690   -0.5983 C   0  0  0  0  0
    0.9329    2.5761   -2.4828 C   0  0  0  0  0
   -2.9854   -0.3676   -0.4149 C   0  0  0  0  0
   -0.5880    2.3163   -5.1829 C   0  0  0  0  0
    2.8747   -0.5542   -1.7117 C   0  0  0  0  0
   -1.1154    1.4192    0.4008 N   0  0  0  0  0
    0.9675    3.6588   -3.4129 N   0  0  0  0  0
    3.7828   -0.4853   -2.6223 O   0  0  0  0  0
    2.8208   -1.5191   -0.8605 O   0  0  0  0  0
   -3.6107    1.6903    1.0342 O   0  0  0  0  0
   -2.9299    2.0659   -1.3521 O   0  0  0  0  0
   -1.5659    4.1457   -3.6264 O   0  0  0  0  0
   -0.0463    4.8483   -5.4963 O   0  0  0  0  0
   -2.9796   -1.3601    0.9805 S   0  0  0  0  0
    0.6440    1.8813   -6.2899 S   0  0  0  0  0
   -2.7638    1.3594   -0.0965 S   0  0  0  0  0
   -0.3897    3.9120   -4.4433 S   0  0  0  0  0
  1  3  1  0  0  0
  2  4  1  0  0  0
  5 11  1  0  0  0
  6 10  1  0  0  0
  7 12  1  0  0  0
  8 24  1  0  0  0
  9 25  1  0  0  0
 10 15  1  0  0  0
 11 16  1  0  0  0
 12 17  1  0  0  0
 13 24  1  0  0  0
 14 25  1  0  0  0
 15 18  1  0  0  0
 26 13  1  0  0  0
 26 16  1  0  0  0
 27 14  1  0  0  0
 27 17  1  0  0  0
  1  8  2  0  0  0
  2  9  2  0  0  0
  3 13  2  0  0  0
  4 14  2  0  0  0
  5 10  2  0  0  0
  6 12  2  0  0  0
  7 11  2  0  0  0
 15 19  2  0  0  0
 26 20  2  0  0  0
 26 21  2  0  0  0
 27 22  2  0  0  0
 27 23  2  0  0  0
M  CHG  1  18  -1
M  END
> <rmsd>
0.497329175

$$$$
ZINC03884797


 27 29  0  0  0  0  0  0  0  0999 V2000
   -3.3365   -2.7315    0.0443 C   0  0  0  0  0
   -1.4480   -0.3042   -5.7683 C   0  0  0  0  0
   -3.3239   -1.4491    0.6652 C   0  0  0  0  0
   -1.7365    0.8823   -5.0339 C   0  0  0  0  0
    0.8368    0.4480   -0.6738 C   0  0  0  0  0
    1.7725    1.4160   -2.6799 C   0  0  0  0  0
   -0.1742    2.4121   -1.6523 C   0  0  0  0  0
   -3.0007   -2.6636   -1.2900 C   0  0  0  0  0
   -0.3179   -0.1703   -6.5446 C   0  0  0  0  0
    1.7974    0.4386   -1.6849 C   0  0  0  0  0
   -0.1491    1.4346   -0.6574 C   0  0  0  0  0
    0.7866    2.4028   -2.6635 C   0  0  0  0  0
   -2.9787   -0.4499   -0.2182 C   0  0  0  0  0
   -0.8155    1.8777   -5.2766 C   0  0  0  0  0
    2.8380   -0.6024   -1.7017 C   0  0  0  0  0
   -1.1322    1.4449    0.3778 N   0  0  0  0  0
    0.7607    3.4031   -3.6819 N   0  0  0  0  0
    3.7131   -0.5888   -2.6465 O   0  0  0  0  0
    2.8389   -1.4927   -0.7712 O   0  0  0  0  0
   -3.6115    1.7076    1.0743 O   0  0  0  0  0
   -3.0210    1.8959   -1.3577 O   0  0  0  0  0
   -1.7909    3.8081   -3.8455 O   0  0  0  0  0
   -0.3541    4.3865   -5.8204 O   0  0  0  0  0
   -2.6720   -1.0588   -1.7890 S   0  0  0  0  0
    0.3904    1.3807   -6.3862 S   0  0  0  0  0
   -2.7939    1.3027   -0.0539 S   0  0  0  0  0
   -0.6366    3.5348   -4.6811 S   0  0  0  0  0
  1  3  1  0  0  0
  2  4  1  0  0  0
  5 11  1  0  0  0
  6 10  1  0  0  0
  7 12  1  0  0  0
  8 24  1  0  0  0
  9 25  1  0  0  0
 10 15  1  0  0  0
 11 16  1  0  0  0
 12 17  1  0  0  0
 13 24  1  0  0  0
 14 25  1  0  0  0
 15 18  1  0  0  0
 26 13  1  0  0  0
 26 16  1  0  0  0
 27 14  1  0  0  0
 27 17  1  0  0  0
  1  8  2  0  0  0
  2  9  2  0  0  0
  3 13  2  0  0  0
  4 14  2  0  0  0
  5 10  2  0  0  0
  6 12  2  0  0  0
  7 11  2  0  0  0
 15 19  2  0  0  0
 26 20  2  0  0  0
 26 21  2  0  0  0
 27 22  2  0  0  0
 27 23  2  0  0  0
M  CHG  1  18  -1
M  END
> <rmsd>
0.555680633

$$$$
ZINC32962213


 31 34  0  0  0  0  0  0  0  0999 V2000
   -3.2370   -2.5901    0.4248 C   0  0  0  0  0
   -2.4212   -2.2323   -1.8210 C   0  0  0  0  0
    0.9802    2.8472   -2.2558 C   0  0  0  0  0
   -0.0683    2.7412   -1.3420 C   0  0  0  0  0
   -3.2021   -1.2151    0.6566 C   0  0  0  0  0
   -2.3864   -0.8574   -1.5892 C   0  0  0  0  0
    0.9951    0.8142   -0.3454 C   0  0  0  0  0
    2.0436    0.9203   -1.2593 C   0  0  0  0  0
   -2.8465   -3.0988   -0.8140 C   0  0  0  0  0
    2.0362    1.9368   -2.2144 C   0  0  0  0  0
   -0.0609    1.7248   -0.3869 C   0  0  0  0  0
   -2.7769   -0.3487   -0.3505 C   0  0  0  0  0
    3.1480   -0.0553   -1.1938 C   0  0  0  0  0
   -2.5220   -7.0504   -2.6776 C   0  0  0  0  0
   -1.5359   -6.6801   -1.5739 C   0  0  0  0  0
   -3.9118   -6.4839   -2.4036 C   0  0  0  0  0
   -1.4837   -5.1702   -1.3475 C   0  0  0  0  0
   -3.8714   -4.9731   -2.1814 C   0  0  0  0  0
    4.2306    2.8967   -2.7786 C   0  0  0  0  0
    2.7942    1.9744   -4.5764 C   0  0  0  0  0
    5.4333    2.5122   -3.6328 C   0  0  0  0  0
    4.0737    1.6396   -5.3349 C   0  0  0  0  0
   -2.8821   -4.5910   -1.0651 C   0  0  0  0  0
    3.0778    2.0602   -3.1396 N   0  0  0  0  0
   -1.1422    1.6157    0.5549 N   0  0  0  0  0
    3.0549   -1.1388   -1.8808 O   0  0  0  0  0
    4.1641    0.2124   -0.4518 O   0  0  0  0  0
   -3.6817    1.6682    1.0059 O   0  0  0  0  0
   -2.8727    2.0639   -1.3368 O   0  0  0  0  0
    5.1019    2.5778   -5.0196 O   0  0  0  0  0
   -2.7327    1.3725   -0.0611 S   0  0  0  0  0
  1  5  1  0  0  0
  2  9  1  0  0  0
  3 10  1  0  0  0
  4 11  1  0  0  0
  6 12  1  0  0  0
  7  8  1  0  0  0
  8 13  1  0  0  0
 10 24  1  0  0  0
 11 25  1  0  0  0
 13 26  1  0  0  0
 14 15  1  0  0  0
 14 16  1  0  0  0
 15 17  1  0  0  0
 16 18  1  0  0  0
 17 23  1  0  0  0
 18 23  1  0  0  0
 19 21  1  0  0  0
 19 24  1  0  0  0
 20 22  1  0  0  0
 20 24  1  0  0  0
 21 30  1  0  0  0
 22 30  1  0  0  0
 23  9  1  0  0  0
 31 12  1  0  0  0
 31 25  1  0  0  0
  1  9  2  0  0  0
  2  6  2  0  0  0
  3  4  2  0  0  0
  5 12  2  0  0  0
  7 11  2  0  0  0
  8 10  2  0  0  0
 13 27  2  0  0  0
 31 28  2  0  0  0
 31 29  2  0  0  0
M  CHG  1  26  -1
M  END
> <rmsd>
0.711395204

$$$$
ZINC32962213


 31 34  0  0  0  0  0  0  0  0999 V2000
   -3.5405   -2.5671    0.5353 C   0  0  0  0  0
   -2.9077   -2.3058   -1.7816 C   0  0  0  0  0
    0.8306    2.4770   -2.6248 C   0  0  0  0  0
   -0.1351    2.4679   -1.6183 C   0  0  0  0  0
   -3.3760   -1.1964    0.7348 C   0  0  0  0  0
   -2.7433   -0.9352   -1.5822 C   0  0  0  0  0
    0.8593    0.4747   -0.6823 C   0  0  0  0  0
    1.8250    0.4840   -1.6889 C   0  0  0  0  0
   -3.3063   -3.1219   -0.7229 C   0  0  0  0  0
    1.8106    1.4851   -2.6600 C   0  0  0  0  0
   -0.1208    1.4668   -0.6472 C   0  0  0  0  0
   -2.9775   -0.3804   -0.3239 C   0  0  0  0  0
    2.8502   -0.5765   -1.7032 C   0  0  0  0  0
   -3.4668   -7.1110   -2.5269 C   0  0  0  0  0
   -2.3577   -6.8068   -1.5244 C   0  0  0  0  0
   -4.7766   -6.4308   -2.1406 C   0  0  0  0  0
   -2.1659   -5.3032   -1.3345 C   0  0  0  0  0
   -4.5968   -4.9254   -1.9539 C   0  0  0  0  0
    4.0133    2.2575   -3.4391 C   0  0  0  0  0
    2.3502    1.4303   -5.0809 C   0  0  0  0  0
    5.0987    1.7662   -4.3900 C   0  0  0  0  0
    3.5246    0.9836   -5.9446 C   0  0  0  0  0
   -3.4825   -4.6095   -0.9392 C   0  0  0  0  0
    2.7698    1.5120   -3.6776 N   0  0  0  0  0
   -1.1168    1.4577    0.3902 N   0  0  0  0  0
    2.6093   -1.6580   -2.3567 O   0  0  0  0  0
    3.9478   -0.3818   -1.0613 O   0  0  0  0  0
   -3.5922    1.7205    1.0668 O   0  0  0  0  0
   -2.9720    2.0188   -1.3468 O   0  0  0  0  0
    4.6482    1.8399   -5.7424 O   0  0  0  0  0
   -2.7711    1.3353   -0.0750 S   0  0  0  0  0
  1  5  1  0  0  0
  2  9  1  0  0  0
  3 10  1  0  0  0
  4 11  1  0  0  0
  6 12  1  0  0  0
  7  8  1  0  0  0
  8 13  1  0  0  0
 10 24  1  0  0  0
 11 25  1  0  0  0
 13 26  1  0  0  0
 14 15  1  0  0  0
 14 16  1  0  0  0
 15 17  1  0  0  0
 16 18  1  0  0  0
 17 23  1  0  0  0
 18 23  1  0  0  0
 19 21  1  0  0  0
 19 24  1  0  0  0
 20 22  1  0  0  0
 20 24  1  0  0  0
 21 30  1  0  0  0
 22 30  1  0  0  0
 23  9  1  0  0  0
 31 12  1  0  0  0
 31 25  1  0  0  0
  1  9  2  0  0  0
  2  6  2  0  0  0
  3  4  2  0  0  0
  5 12  2  0  0  0
  7 11  2  0  0  0
  8 10  2  0  0  0
 13 27  2  0  0  0
 31 28  2  0  0  0
 31 29  2  0  0  0
M  CHG  1  26  -1
M  END
> <rmsd>
0.527704716

$$$$
ZINC89672867


 30 32  0  0  0  0  0  0  0  0999 V2000
    3.7242   -0.9573    1.7398 C   0  0  0  0  0
    2.9257   -2.0234    2.1538 C   0  0  0  0  0
   -2.9875   -3.0751   -0.8616 C   0  0  0  0  0
   -2.7724   -2.6244    0.4408 C   0  0  0  0  0
    1.2812    3.1081   -1.8967 C   0  0  0  0  0
    3.8528   -0.6689    0.3810 C   0  0  0  0  0
    1.8217    1.9564   -2.4685 C   0  0  0  0  0
    2.3847   -2.5128   -0.1494 C   0  0  0  0  0
   -3.0951   -0.7888   -1.6351 C   0  0  0  0  0
    0.3742    0.5948   -1.0944 C   0  0  0  0  0
    2.2560   -2.8012    1.2093 C   0  0  0  0  0
   -3.1487   -2.1573   -1.8996 C   0  0  0  0  0
    0.2871    3.0031   -0.9237 C   0  0  0  0  0
   -2.7188   -1.2559    0.7053 C   0  0  0  0  0
    3.1831   -1.4467   -0.5635 C   0  0  0  0  0
   -0.1663    1.7465   -0.5226 C   0  0  0  0  0
    1.3683    0.6997   -2.0674 C   0  0  0  0  0
   -2.8801   -0.3381   -0.3326 C   0  0  0  0  0
    1.4024   -3.9407    1.6529 C   0  0  0  0  0
   -3.3773   -2.6398   -3.2922 C   0  0  0  0  0
   -0.2750    4.2524   -0.3273 C   0  0  0  0  0
   -2.4871   -0.8066    2.1109 C   0  0  0  0  0
    3.3072   -1.1675   -1.8755 N   0  0  0  0  0
   -1.1844    1.6184    0.4736 N   0  0  0  0  0
    0.9449   -1.7228   -2.7574 O   0  0  0  0  0
    2.4151   -0.3372   -4.1522 O   0  0  0  0  0
   -3.6958    1.6711    1.0898 O   0  0  0  0  0
   -3.0368    2.0802   -1.2972 O   0  0  0  0  0
    2.0680   -0.7889   -2.8064 S   0  0  0  0  0
   -2.8159    1.4050   -0.0327 S   0  0  0  0  0
  1  6  1  0  0  0
  2 11  1  0  0  0
  3 12  1  0  0  0
  4 14  1  0  0  0
  5 13  1  0  0  0
  7 17  1  0  0  0
  8 15  1  0  0  0
  9 18  1  0  0  0
 10 16  1  0  0  0
 15 23  1  0  0  0
 16 24  1  0  0  0
 19 11  1  0  0  0
 20 12  1  0  0  0
 21 13  1  0  0  0
 22 14  1  0  0  0
 29 17  1  0  0  0
 29 23  1  0  0  0
 30 18  1  0  0  0
 30 24  1  0  0  0
  1  2  2  0  0  0
  3  4  2  0  0  0
  5  7  2  0  0  0
  6 15  2  0  0  0
  8 11  2  0  0  0
  9 12  2  0  0  0
 10 17  2  0  0  0
 13 16  2  0  0  0
 14 18  2  0  0  0
 29 25  2  0  0  0
 29 26  2  0  0  0
 30 27  2  0  0  0
 30 28  2  0  0  0
M  CHG  1  23  -1
M  END
> <rmsd>
0.627427459

$$$$
ZINC89672867


 30 32  0  0  0  0  0  0  0  0999 V2000
    2.2565   -2.8032    1.2085 C   0  0  0  0  0
    2.9264   -2.0263    2.1535 C   0  0  0  0  0
   -2.9879   -3.0754   -0.8612 C   0  0  0  0  0
   -2.7728   -2.6246    0.4412 C   0  0  0  0  0
    1.2807    3.1078   -1.8967 C   0  0  0  0  0
    2.3847   -2.5136   -0.1500 C   0  0  0  0  0
    1.8212    1.9561   -2.4684 C   0  0  0  0  0
    3.8527   -0.6699    0.3817 C   0  0  0  0  0
   -3.0956   -0.7891   -1.6347 C   0  0  0  0  0
    0.3738    0.5946   -1.0943 C   0  0  0  0  0
    3.7245   -0.9596    1.7401 C   0  0  0  0  0
   -3.1491   -2.1576   -1.8991 C   0  0  0  0  0
    0.2866    3.0029   -0.9237 C   0  0  0  0  0
   -2.7191   -1.2561    0.7057 C   0  0  0  0  0
    3.1827   -1.4469   -0.5633 C   0  0  0  0  0
   -0.1667    1.7463   -0.5225 C   0  0  0  0  0
    1.3678    0.6995   -2.0673 C   0  0  0  0  0
   -2.8806   -0.3383   -0.3323 C   0  0  0  0  0
    4.4407   -0.1294    2.7512 C   0  0  0  0  0
   -3.3778   -2.6402   -3.2917 C   0  0  0  0  0
   -0.2755    4.2522   -0.3273 C   0  0  0  0  0
   -2.4875   -0.8067    2.1113 C   0  0  0  0  0
    3.3067   -1.1678   -1.8753 N   0  0  0  0  0
   -1.1848    1.6182    0.4738 N   0  0  0  0  0
    0.9444   -1.7231   -2.7571 O   0  0  0  0  0
    2.4146   -0.3376   -4.1520 O   0  0  0  0  0
   -3.6962    1.6710    1.0901 O   0  0  0  0  0
   -3.0373    2.0800   -1.2970 O   0  0  0  0  0
    2.0675   -0.7892   -2.8062 S   0  0  0  0  0
   -2.8163    1.4048   -0.0325 S   0  0  0  0  0
  1  6  1  0  0  0
  2 11  1  0  0  0
  3 12  1  0  0  0
  4 14  1  0  0  0
  5 13  1  0  0  0
  7 17  1  0  0  0
  8 15  1  0  0  0
  9 18  1  0  0  0
 10 16  1  0  0  0
 15 23  1  0  0  0
 16 24  1  0  0  0
 19 11  1  0  0  0
 20 12  1  0  0  0
 21 13  1  0  0  0
 22 14  1  0  0  0
 29 17  1  0  0  0
 29 23  1  0  0  0
 30 18  1  0  0  0
 30 24  1  0  0  0
  1  2  2  0  0  0
  3  4  2  0  0  0
  5  7  2  0  0  0
  6 15  2  0  0  0
  8 11  2  0  0  0
  9 12  2  0  0  0
 10 17  2  0  0  0
 13 16  2  0  0  0
 14 18  2  0  0  0
 29 25  2  0  0  0
 29 26  2  0  0  0
 30 27  2  0  0  0
 30 28  2  0  0  0
M  CHG  1  23  -1
M  END
> <rmsd>
0.627387464

$$$$
ZINC32971192


 31 34  0  0  0  0  0  0  0  0999 V2000
   -3.1629   -3.1247   -0.7472 C   0  0  0  0  0
   -3.4457   -2.5783    0.5046 C   0  0  0  0  0
   -2.7523   -2.2974   -1.7927 C   0  0  0  0  0
    1.9425    1.5939   -2.4783 C   0  0  0  0  0
    1.0431    2.6559   -2.3843 C   0  0  0  0  0
   -3.3180   -1.2047    0.7110 C   0  0  0  0  0
   -2.6245   -0.9238   -1.5863 C   0  0  0  0  0
    0.8211    0.4822   -0.6497 C   0  0  0  0  0
    1.8314    0.5070   -1.6110 C   0  0  0  0  0
    0.0327    2.6311   -1.4229 C   0  0  0  0  0
   -0.0783    1.5442   -0.5556 C   0  0  0  0  0
   -2.9074   -0.3775   -0.3344 C   0  0  0  0  0
    2.7806   -0.6134   -1.7107 C   0  0  0  0  0
   -6.0171    8.6548   -1.0331 C   0  0  0  0  0
   -5.5677    7.9001    0.2135 C   0  0  0  0  0
   -5.7831    7.8285   -2.2931 C   0  0  0  0  0
   -2.3047    5.1826   -0.0005 C   0  0  0  0  0
   -2.5129    5.1276   -2.4972 C   0  0  0  0  0
   -0.9499    4.4808   -0.1007 C   0  0  0  0  0
   -1.1552    4.4322   -2.5902 C   0  0  0  0  0
   -4.1245    7.4304    0.0984 C   0  0  0  0  0
   -4.3395    7.3588   -2.3994 C   0  0  0  0  0
   -2.5876    6.0046   -1.2524 C   0  0  0  0  0
   -0.8597    3.7073   -1.3453 N   0  0  0  0  0
   -1.1063    1.4967    0.4383 N   0  0  0  0  0
   -3.9668    6.5955   -1.1505 N   0  0  0  0  0
    2.6567   -1.6049   -0.8981 O   0  0  0  0  0
    3.7040   -0.5657   -2.6072 O   0  0  0  0  0
   -3.6128    1.7059    1.0397 O   0  0  0  0  0
   -2.9220    2.0240   -1.3522 O   0  0  0  0  0
   -2.7450    1.3653   -0.0722 S   0  0  0  0  0
  1  2  1  0  0  0
  3  7  1  0  0  0
  4  9  1  0  0  0
  5 10  1  0  0  0
  6 12  1  0  0  0
  8 11  1  0  0  0
  9 13  1  0  0  0
 10 24  1  0  0  0
 11 25  1  0  0  0
 13 27  1  0  0  0
 14 15  1  0  0  0
 14 16  1  0  0  0
 15 21  1  0  0  0
 16 22  1  0  0  0
 17 19  1  0  0  0
 17 23  1  0  0  0
 18 20  1  0  0  0
 18 23  1  0  0  0
 19 24  1  0  0  0
 20 24  1  0  0  0
 21 26  1  0  0  0
 22 26  1  0  0  0
 23 26  1  0  0  0
 31 12  1  0  0  0
 31 25  1  0  0  0
  1  3  2  0  0  0
  2  6  2  0  0  0
  4  5  2  0  0  0
  7 12  2  0  0  0
  8  9  2  0  0  0
 10 11  2  0  0  0
 13 28  2  0  0  0
 31 29  2  0  0  0
 31 30  2  0  0  0
M  CHG  2  26   1  27  -1
M  END
> <rmsd>
0.588888347

$$$$
ZINC32962194


 31 33  0  0  0  0  0  0  0  0999 V2000
   -2.9074   -2.3079   -1.7764 C   0  0  0  0  0
   -3.5407   -2.5648    0.5409 C   0  0  0  0  0
    0.8693    2.5247   -2.5712 C   0  0  0  0  0
   -0.1065    2.5015   -1.5749 C   0  0  0  0  0
   -2.7423   -0.9369   -1.5792 C   0  0  0  0  0
   -3.3756   -1.1939    0.7381 C   0  0  0  0  0
    0.8590    0.4772   -0.6764 C   0  0  0  0  0
    1.8349    0.5004   -1.6729 C   0  0  0  0  0
   -3.3066   -3.1218   -0.7162 C   0  0  0  0  0
    1.8400    1.5242   -2.6203 C   0  0  0  0  0
   -0.1117    1.4777   -0.6275 C   0  0  0  0  0
   -2.9764   -0.3799   -0.3220 C   0  0  0  0  0
    2.8497   -0.5695   -1.7021 C   0  0  0  0  0
    2.4999    3.9956   -5.7652 C   0  0  0  0  0
    3.8634    4.2175   -5.1074 C   0  0  0  0  0
    2.3896    2.7159   -6.5967 C   0  0  0  0  0
    3.9572    3.7773   -3.6466 C   0  0  0  0  0
    1.7430    1.5311   -5.8791 C   0  0  0  0  0
    4.0833    2.2692   -3.4429 C   0  0  0  0  0
    2.6520    0.8189   -4.8800 C   0  0  0  0  0
   -2.1568   -5.2573   -1.3974 C   0  0  0  0  0
   -4.5672   -4.8751   -2.0139 C   0  0  0  0  0
   -3.9363   -5.3972    0.3335 C   0  0  0  0  0
   -3.4852   -4.5873   -0.9272 C   0  0  0  0  0
    2.8097    1.5655   -3.6276 N   0  0  0  0  0
   -1.1109    1.4542    0.3921 N   0  0  0  0  0
    2.6051   -1.6330   -2.3833 O   0  0  0  0  0
    3.9427   -0.4009   -1.0451 O   0  0  0  0  0
   -3.5966    1.7233    1.0628 O   0  0  0  0  0
   -2.9646    2.0179   -1.3482 O   0  0  0  0  0
   -2.7675    1.3596   -0.0711 S   0  0  0  0  0
  1  9  1  0  0  0
  2  6  1  0  0  0
  3 10  1  0  0  0
  4 11  1  0  0  0
  5 12  1  0  0  0
  7  8  1  0  0  0
  8 13  1  0  0  0
 10 25  1  0  0  0
 11 26  1  0  0  0
 13 27  1  0  0  0
 14 15  1  0  0  0
 14 16  1  0  0  0
 15 17  1  0  0  0
 16 18  1  0  0  0
 17 19  1  0  0  0
 18 20  1  0  0  0
 19 25  1  0  0  0
 20 25  1  0  0  0
 21 24  1  0  0  0
 22 24  1  0  0  0
 23 24  1  0  0  0
 24  9  1  0  0  0
 31 12  1  0  0  0
 31 26  1  0  0  0
  1  5  2  0  0  0
  2  9  2  0  0  0
  3  4  2  0  0  0
  6 12  2  0  0  0
  7 11  2  0  0  0
  8 10  2  0  0  0
 13 28  2  0  0  0
 31 29  2  0  0  0
 31 30  2  0  0  0
M  CHG  1  27  -1
M  END
> <rmsd>
0.525590062

$$$$
ZINC32962194


 31 33  0  0  0  0  0  0  0  0999 V2000
   -2.4213   -2.2391   -1.8095 C   0  0  0  0  0
   -3.2452   -2.5873    0.4348 C   0  0  0  0  0
    1.0215    2.8845   -2.1904 C   0  0  0  0  0
   -0.0378    2.7674   -1.2907 C   0  0  0  0  0
   -2.3836   -0.8634   -1.5822 C   0  0  0  0  0
   -3.2074   -1.2117    0.6622 C   0  0  0  0  0
    0.9960    0.8072   -0.3283 C   0  0  0  0  0
    2.0554    0.9242   -1.2281 C   0  0  0  0  0
   -2.8522   -3.1010   -0.8010 C   0  0  0  0  0
    2.0682    1.9629   -2.1592 C   0  0  0  0  0
   -0.0507    1.7288   -0.3596 C   0  0  0  0  0
   -2.7765   -0.3496   -0.3464 C   0  0  0  0  0
    3.1495   -0.0634   -1.1738 C   0  0  0  0  0
    2.8215    4.5361   -5.1998 C   0  0  0  0  0
    4.0963    4.8502   -4.4139 C   0  0  0  0  0
    2.8899    3.2674   -6.0524 C   0  0  0  0  0
    4.0881    4.3914   -2.9559 C   0  0  0  0  0
    2.2744    2.0231   -5.4123 C   0  0  0  0  0
    4.3127    2.8940   -2.7584 C   0  0  0  0  0
    3.1397    1.3646   -4.3403 C   0  0  0  0  0
   -1.4799   -5.1284   -1.3950 C   0  0  0  0  0
   -3.8451   -4.9218   -2.2314 C   0  0  0  0  0
   -3.3961   -5.4374    0.1589 C   0  0  0  0  0
   -2.8948   -4.5717   -1.0445 C   0  0  0  0  0
    3.1211    2.0977   -3.0702 N   0  0  0  0  0
   -1.1354    1.6093    0.5609 N   0  0  0  0  0
    3.0536   -1.1297   -1.8871 O   0  0  0  0  0
    4.1600    0.1767   -0.4149 O   0  0  0  0  0
   -3.6861    1.6733    0.9976 O   0  0  0  0  0
   -2.8578    2.0607   -1.3396 O   0  0  0  0  0
   -2.7291    1.3958   -0.0572 S   0  0  0  0  0
  1  9  1  0  0  0
  2  6  1  0  0  0
  3 10  1  0  0  0
  4 11  1  0  0  0
  5 12  1  0  0  0
  7  8  1  0  0  0
  8 13  1  0  0  0
 10 25  1  0  0  0
 11 26  1  0  0  0
 13 27  1  0  0  0
 14 15  1  0  0  0
 14 16  1  0  0  0
 15 17  1  0  0  0
 16 18  1  0  0  0
 17 19  1  0  0  0
 18 20  1  0  0  0
 19 25  1  0  0  0
 20 25  1  0  0  0
 21 24  1  0  0  0
 22 24  1  0  0  0
 23 24  1  0  0  0
 24  9  1  0  0  0
 31 12  1  0  0  0
 31 26  1  0  0  0
  1  5  2  0  0  0
  2  9  2  0  0  0
  3  4  2  0  0  0
  6 12  2  0  0  0
  7 11  2  0  0  0
  8 10  2  0  0  0
 13 28  2  0  0  0
 31 29  2  0  0  0
 31 30  2  0  0  0
M  CHG  1  27  -1
M  END
> <rmsd>
0.706723332

$$$$
ZINC58009117


 28 30  0  0  0  0  0  0  0  0999 V2000
    1.0202    2.8838   -2.1911 C   0  0  0  0  0
   -0.0391    2.7668   -1.2913 C   0  0  0  0  0
   -3.2073   -1.2124    0.6632 C   0  0  0  0  0
   -3.2480   -2.5878    0.4353 C   0  0  0  0  0
    0.9954    0.8072   -0.3286 C   0  0  0  0  0
   -2.3873   -0.8645   -1.5826 C   0  0  0  0  0
    2.0546    0.9242   -1.2285 C   0  0  0  0  0
    2.0671    1.9625   -2.1598 C   0  0  0  0  0
   -0.0516    1.7285   -0.3600 C   0  0  0  0  0
   -2.7770   -0.3507   -0.3458 C   0  0  0  0  0
   -2.8584   -3.1017   -0.8016 C   0  0  0  0  0
   -2.4281   -2.2400   -1.8106 C   0  0  0  0  0
    3.1489   -0.0634   -1.1740 C   0  0  0  0  0
    4.2705    2.9164   -2.6664 C   0  0  0  0  0
    2.8439    2.0452   -4.5107 C   0  0  0  0  0
    5.5170    2.5128   -3.4422 C   0  0  0  0  0
    4.0943    1.6481   -5.2850 C   0  0  0  0  0
    6.4530    2.3143   -5.7454 C   0  0  0  0  0
    3.1205    2.0974   -3.0715 N   0  0  0  0  0
   -1.1361    1.6090    0.5609 N   0  0  0  0  0
    5.2248    2.5755   -4.9199 N   0  0  0  0  0
    3.0532   -1.1297   -1.8870 O   0  0  0  0  0
    4.1595    0.1773   -0.4152 O   0  0  0  0  0
   -3.6868    1.6724    0.9978 O   0  0  0  0  0
   -2.8588    2.0594   -1.3397 O   0  0  0  0  0
   -2.7299    1.3950   -0.0571 S   0  0  0  0  0
   -2.9299   -4.8149   -1.0218 Cl  0  0  0  0  0
   -1.9333   -2.8161   -3.3638 Cl  0  0  0  0  0
  1  8  1  0  0  0
  2  9  1  0  0  0
  3 10  1  0  0  0
  4 11  1  0  0  0
  5  7  1  0  0  0
  6 12  1  0  0  0
  7 13  1  0  0  0
  8 19  1  0  0  0
  9 20  1  0  0  0
 11 27  1  0  0  0
 12 28  1  0  0  0
 13 22  1  0  0  0
 14 16  1  0  0  0
 14 19  1  0  0  0
 15 17  1  0  0  0
 15 19  1  0  0  0
 16 21  1  0  0  0
 17 21  1  0  0  0
 18 21  1  0  0  0
 26 10  1  0  0  0
 26 20  1  0  0  0
  1  2  2  0  0  0
  3  4  2  0  0  0
  5  9  2  0  0  0
  6 10  2  0  0  0
  7  8  2  0  0  0
 11 12  2  0  0  0
 13 23  2  0  0  0
 26 24  2  0  0  0
 26 25  2  0  0  0
M  CHG  2  21   1  22  -1
M  END
> <rmsd>
0.705162108

$$$$
ZINC58009117


 28 30  0  0  0  0  0  0  0  0999 V2000
    0.8682    2.5245   -2.5715 C   0  0  0  0  0
   -0.1076    2.5011   -1.5751 C   0  0  0  0  0
   -3.3752   -1.1947    0.7389 C   0  0  0  0  0
   -3.5431   -2.5652    0.5414 C   0  0  0  0  0
    0.8586    0.4774   -0.6764 C   0  0  0  0  0
   -2.7458   -0.9377   -1.5794 C   0  0  0  0  0
    1.8344    0.5007   -1.6729 C   0  0  0  0  0
    1.8392    1.5243   -2.6204 C   0  0  0  0  0
   -0.1125    1.4776   -0.6275 C   0  0  0  0  0
   -2.9766   -0.3809   -0.3215 C   0  0  0  0  0
   -3.3123   -3.1220   -0.7165 C   0  0  0  0  0
   -2.9137   -2.3082   -1.7770 C   0  0  0  0  0
    2.8495   -0.5690   -1.7019 C   0  0  0  0  0
    4.0521    2.2965   -3.3472 C   0  0  0  0  0
    2.3955    1.5192   -5.0344 C   0  0  0  0  0
    5.1853    1.7876   -4.2278 C   0  0  0  0  0
    3.5331    1.0165   -5.9140 C   0  0  0  0  0
    5.8824    1.4902   -6.6039 C   0  0  0  0  0
    2.8094    1.5658   -3.6284 N   0  0  0  0  0
   -1.1115    1.4541    0.3922 N   0  0  0  0  0
    4.7611    1.8563   -5.6728 N   0  0  0  0  0
    2.6053   -1.6325   -2.3829 O   0  0  0  0  0
    3.9425   -0.3998   -1.0449 O   0  0  0  0  0
   -3.5973    1.7224    1.0630 O   0  0  0  0  0
   -2.9656    2.0168   -1.3482 O   0  0  0  0  0
   -2.7682    1.3588   -0.0710 S   0  0  0  0  0
   -3.5361   -4.8267   -0.8973 Cl  0  0  0  0  0
   -2.6132   -2.9389   -3.3584 Cl  0  0  0  0  0
  1  8  1  0  0  0
  2  9  1  0  0  0
  3 10  1  0  0  0
  4 11  1  0  0  0
  5  7  1  0  0  0
  6 12  1  0  0  0
  7 13  1  0  0  0
  8 19  1  0  0  0
  9 20  1  0  0  0
 11 27  1  0  0  0
 12 28  1  0  0  0
 13 22  1  0  0  0
 14 16  1  0  0  0
 14 19  1  0  0  0
 15 17  1  0  0  0
 15 19  1  0  0  0
 16 21  1  0  0  0
 17 21  1  0  0  0
 18 21  1  0  0  0
 26 10  1  0  0  0
 26 20  1  0  0  0
  1  2  2  0  0  0
  3  4  2  0  0  0
  5  9  2  0  0  0
  6 10  2  0  0  0
  7  8  2  0  0  0
 11 12  2  0  0  0
 13 23  2  0  0  0
 26 24  2  0  0  0
 26 25  2  0  0  0
M  CHG  2  21   1  22  -1
M  END
> <rmsd>
0.524457693

$$$$
ZINC72005552


 28 29  0  0  0  0  0  0  0  0999 V2000
    2.4528    1.0003   -1.2716 C   0  0  0  0  0
    1.4392    1.6798   -0.5960 C   0  0  0  0  0
   -3.8059   -0.1707   -1.0272 C   0  0  0  0  0
   -3.5576   -1.4511   -1.5215 C   0  0  0  0  0
    0.3126   -0.4160   -0.1777 C   0  0  0  0  0
   -3.1987   -2.2506    0.7300 C   0  0  0  0  0
    1.3261   -1.0957   -0.8533 C   0  0  0  0  0
    2.3962   -0.3876   -1.4004 C   0  0  0  0  0
    0.3692    0.9718   -0.0489 C   0  0  0  0  0
   -3.7504    0.0699    0.3457 C   0  0  0  0  0
   -3.2541   -2.4911   -0.6429 C   0  0  0  0  0
   -3.4469   -0.9701    1.2243 C   0  0  0  0  0
   -0.7613    3.0323    0.8558 C   0  0  0  0  0
    1.2262   -2.5844   -0.9673 C   0  0  0  0  0
    2.8002   -1.8709   -5.8725 C   0  0  0  0  0
   -2.0278    3.3563    1.6384 C   0  0  0  0  0
   -3.2446    3.6268    0.7585 C   0  0  0  0  0
   -3.6567    2.4107   -0.0641 C   0  0  0  0  0
    2.6738   -1.9208   -4.3663 C   0  0  0  0  0
    3.3871   -1.0239   -2.0580 N   0  0  0  0  0
   -0.6593    1.6614    0.6363 N   0  0  0  0  0
    0.0341    3.9013    0.5141 O   0  0  0  0  0
    5.0754   -1.1376   -4.0132 O   0  0  0  0  0
    3.2681    0.5462   -4.1091 O   0  0  0  0  0
   -3.9987    1.3374    0.8036 O   0  0  0  0  0
    3.7411   -0.7307   -3.5816 S   0  0  0  0  0
   -2.9478   -4.0705   -1.2541 Cl  0  0  0  0  0
   -3.3713   -0.7001    2.9263 Cl  0  0  0  0  0
  1  8  1  0  0  0
  2  9  1  0  0  0
  3 10  1  0  0  0
  4 11  1  0  0  0
  5  7  1  0  0  0
  6 12  1  0  0  0
  8 20  1  0  0  0
  9 21  1  0  0  0
 10 25  1  0  0  0
 11 27  1  0  0  0
 12 28  1  0  0  0
 13 21  1  0  0  0
 14  7  1  0  0  0
 15 19  1  0  0  0
 16 13  1  0  0  0
 16 17  1  0  0  0
 17 18  1  0  0  0
 18 25  1  0  0  0
 19 26  1  0  0  0
 26 20  1  0  0  0
  1  2  2  0  0  0
  3  4  2  0  0  0
  5  9  2  0  0  0
  6 11  2  0  0  0
  7  8  2  0  0  0
 10 12  2  0  0  0
 13 22  2  0  0  0
 26 23  2  0  0  0
 26 24  2  0  0  0
M  CHG  1  20  -1
M  END
> <rmsd>
0.367993414

$$$$
ZINC01801027


 32 35  0  0  0  0  0  0  0  0999 V2000
   -2.1237    2.4195   -7.0020 C   0  0  0  0  0
   -4.1057   -3.3370   -0.0624 C   0  0  0  0  0
   -1.0940    2.0359   -6.1428 C   0  0  0  0  0
   -3.4481    2.1244   -6.6788 C   0  0  0  0  0
   -3.5864   -2.4430    0.8738 C   0  0  0  0  0
   -4.4219   -2.8958   -1.3475 C   0  0  0  0  0
    1.3305   -1.3098    1.6676 C   0  0  0  0  0
    2.2438   -1.4781    0.6268 C   0  0  0  0  0
   -1.3887    1.3571   -4.9604 C   0  0  0  0  0
   -3.7429    1.4455   -5.4964 C   0  0  0  0  0
   -3.3833   -1.1077    0.5252 C   0  0  0  0  0
   -4.2189   -1.5606   -1.6961 C   0  0  0  0  0
    0.3975   -0.2741    1.6160 C   0  0  0  0  0
    1.2915    0.4251   -0.5168 C   0  0  0  0  0
    2.2244   -0.6106   -0.4653 C   0  0  0  0  0
   -2.7132    1.0619   -4.6373 C   0  0  0  0  0
   -3.6996   -0.6664   -0.7598 C   0  0  0  0  0
    0.3781    0.5933    0.5239 C   0  0  0  0  0
   -3.5803    1.7314   -0.1662 C   0  0  0  0  0
   -3.2179    1.1171   -2.4110 C   0  0  0  0  0
    3.1892   -0.7884   -1.5628 C   0  0  0  0  0
   -0.7283    2.5937   -0.5328 C   0  0  0  0  0
   -3.2031    3.0798   -0.7435 C   0  0  0  0  0
   -1.8657    3.5439   -0.1914 C   0  0  0  0  0
   -3.0103    0.3774   -3.4457 N   0  0  0  0  0
   -3.4901    0.7099   -1.1188 N   0  0  0  0  0
   -0.5685    1.6442    0.4724 N   0  0  0  0  0
    3.1502    0.0257   -2.5599 O   0  0  0  0  0
   -3.9384    1.6334    1.0055 O   0  0  0  0  0
    4.0401   -1.7523   -1.4898 O   0  0  0  0  0
   -0.0785    2.7006   -1.5676 O   0  0  0  0  0
   -3.1122    2.8486   -2.5312 S   0  0  0  0  0
  1  3  1  0  0  0
  2  5  1  0  0  0
  4 10  1  0  0  0
  6 12  1  0  0  0
  7  8  1  0  0  0
  9 16  1  0  0  0
 11 17  1  0  0  0
 13 18  1  0  0  0
 14 15  1  0  0  0
 15 21  1  0  0  0
 16 25  1  0  0  0
 17 26  1  0  0  0
 18 27  1  0  0  0
 19 26  1  0  0  0
 20 26  1  0  0  0
 20 32  1  0  0  0
 21 28  1  0  0  0
 22 27  1  0  0  0
 23 19  1  0  0  0
 23 24  1  0  0  0
 23 32  1  0  0  0
 24 22  1  0  0  0
  1  4  2  0  0  0
  2  6  2  0  0  0
  3  9  2  0  0  0
  5 11  2  0  0  0
  7 13  2  0  0  0
  8 15  2  0  0  0
 10 16  2  0  0  0
 12 17  2  0  0  0
 14 18  2  0  0  0
 19 29  2  0  0  0
 20 25  2  0  0  0
 21 30  2  0  0  0
 22 31  2  0  0  0
M  CHG  1  28  -1
M  END
> <rmsd>
0.344606757

$$$$
ZINC35807671


 32 34  0  0  0  0  0  0  0  0999 V2000
   -4.3638   -1.0596    0.5099 C   0  0  0  0  0
   -3.1542   -1.6763   -1.4885 C   0  0  0  0  0
   -4.7818   -2.3812    0.6648 C   0  0  0  0  0
   -3.5722   -2.9980   -1.3336 C   0  0  0  0  0
   -3.5500   -0.7071   -0.5668 C   0  0  0  0  0
   -4.3860   -3.3505   -0.2569 C   0  0  0  0  0
   -3.4362    1.7271    0.1173 C   0  0  0  0  0
   -0.4733    2.3100   -0.7973 C   0  0  0  0  0
    3.7157   -0.7838   -1.4831 C   0  0  0  0  0
    1.4096    0.1083    0.4342 C   0  0  0  0  0
   -2.8333    2.9728   -0.4944 C   0  0  0  0  0
    5.0216    0.8924    0.8247 C   0  0  0  0  0
    5.0052   -0.6250    0.6570 C   0  0  0  0  0
    3.5725    1.2240    1.1475 C   0  0  0  0  0
   -2.3366    1.0761   -1.8688 C   0  0  0  0  0
   -1.8200    2.4477   -1.4900 C   0  0  0  0  0
    3.6517   -0.8956    0.0105 C   0  0  0  0  0
    0.4170    3.3320    3.3624 C   0  0  0  0  0
   -0.4243   -0.4279    2.6580 C   0  0  0  0  0
   -4.3528   -5.5799   -1.0841 C   0  0  0  0  0
   -0.3603    2.0219    3.3426 C   0  0  0  0  0
    0.6739    1.2285    1.1254 C   0  0  0  0  0
    0.3690    0.8839    2.5938 C   0  0  0  0  0
   -3.1217    0.6456   -0.7251 N   0  0  0  0  0
    2.7929    0.1813    0.4852 N   0  0  0  0  0
   -0.4866    1.4953    0.3265 N   0  0  0  0  0
    4.2016    0.2950   -1.9225 O   0  0  0  0  0
   -4.1089    1.7600    1.1378 O   0  0  0  0  0
    0.5021    2.8974   -1.2504 O   0  0  0  0  0
    3.2734   -1.7878   -2.1087 O   0  0  0  0  0
    0.7851   -0.7883   -0.1352 O   0  0  0  0  0
   -4.7941   -4.6399   -0.1055 O   0  0  0  0  0
  1  5  1  0  0  0
  2  4  1  0  0  0
  3  6  1  0  0  0
  5 24  1  0  0  0
  6 32  1  0  0  0
  7 24  1  0  0  0
  8 26  1  0  0  0
  9 27  1  0  0  0
 10 25  1  0  0  0
 11  7  1  0  0  0
 11 16  1  0  0  0
 12 13  1  0  0  0
 12 14  1  0  0  0
 13 17  1  0  0  0
 14 25  1  0  0  0
 15 16  1  0  0  0
 15 24  1  0  0  0
 16  8  1  0  0  0
 17  9  1  0  0  0
 17 25  1  0  0  0
 18 21  1  0  0  0
 19 23  1  0  0  0
 20 32  1  0  0  0
 21 23  1  0  0  0
 22 10  1  0  0  0
 22 23  1  0  0  0
 22 26  1  0  0  0
  1  3  2  0  0  0
  2  5  2  0  0  0
  4  6  2  0  0  0
  7 28  2  0  0  0
  8 29  2  0  0  0
  9 30  2  0  0  0
 10 31  2  0  0  0
M  CHG  1  27  -1
M  END
> <rmsd>
0.40187782

$$$$
ZINC35807671


 32 34  0  0  0  0  0  0  0  0999 V2000
   -4.5872   -0.9456    0.6461 C   0  0  0  0  0
   -3.4498   -1.7871   -1.3123 C   0  0  0  0  0
   -5.1165   -2.2140    0.8837 C   0  0  0  0  0
   -3.9791   -3.0556   -1.0746 C   0  0  0  0  0
   -3.7539   -0.7321   -0.4520 C   0  0  0  0  0
   -4.8123   -3.2690    0.0234 C   0  0  0  0  0
   -3.4258    1.7208    0.0790 C   0  0  0  0  0
   -0.4303    1.9875   -0.8756 C   0  0  0  0  0
    3.4713   -1.4934   -1.3754 C   0  0  0  0  0
    1.2646   -0.2883    0.4870 C   0  0  0  0  0
   -2.7222    2.8695   -0.6102 C   0  0  0  0  0
    4.9335    0.2032    0.8211 C   0  0  0  0  0
    4.7852   -1.3146    0.7483 C   0  0  0  0  0
    3.5208    0.6782    1.1253 C   0  0  0  0  0
   -2.4008    0.8556   -1.8648 C   0  0  0  0  0
   -1.7652    2.1981   -1.5731 C   0  0  0  0  0
    3.4087   -1.5066    0.1224 C   0  0  0  0  0
    0.5748    3.1842    3.2107 C   0  0  0  0  0
   -0.5925   -0.5253    2.7433 C   0  0  0  0  0
   -4.9775   -5.5399   -0.6635 C   0  0  0  0  0
   -0.3126    1.9474    3.2739 C   0  0  0  0  0
    0.6332    0.9320    1.1085 C   0  0  0  0  0
    0.3104    0.7065    2.5960 C   0  0  0  0  0
   -3.2117    0.5661   -0.6950 N   0  0  0  0  0
    2.6494   -0.3321    0.5307 N   0  0  0  0  0
   -0.5057    1.2482    0.2967 N   0  0  0  0  0
    4.0451   -0.4898   -1.8821 O   0  0  0  0  0
   -4.0857    1.8748    1.0967 O   0  0  0  0  0
    0.5887    2.4593   -1.3663 O   0  0  0  0  0
    2.9395   -2.4921   -1.9365 O   0  0  0  0  0
    0.5611   -1.1610   -0.0243 O   0  0  0  0  0
   -5.3290   -4.5065    0.2555 O   0  0  0  0  0
  1  5  1  0  0  0
  2  4  1  0  0  0
  3  6  1  0  0  0
  5 24  1  0  0  0
  6 32  1  0  0  0
  7 24  1  0  0  0
  8 26  1  0  0  0
  9 27  1  0  0  0
 10 25  1  0  0  0
 11  7  1  0  0  0
 11 16  1  0  0  0
 12 13  1  0  0  0
 12 14  1  0  0  0
 13 17  1  0  0  0
 14 25  1  0  0  0
 15 16  1  0  0  0
 15 24  1  0  0  0
 16  8  1  0  0  0
 17  9  1  0  0  0
 17 25  1  0  0  0
 18 21  1  0  0  0
 19 23  1  0  0  0
 20 32  1  0  0  0
 21 23  1  0  0  0
 22 10  1  0  0  0
 22 23  1  0  0  0
 22 26  1  0  0  0
  1  3  2  0  0  0
  2  5  2  0  0  0
  4  6  2  0  0  0
  7 28  2  0  0  0
  8 29  2  0  0  0
  9 30  2  0  0  0
 10 31  2  0  0  0
M  CHG  1  27  -1
M  END
> <rmsd>
0.559694588

$$$$
ZINC35397686


 31 34  0  0  0  0  0  0  0  0999 V2000
   -3.5691   -2.5611    0.5528 C   0  0  0  0  0
   -2.9144   -2.3202   -1.7604 C   0  0  0  0  0
   -3.3969   -1.1902    0.7443 C   0  0  0  0  0
   -2.7422   -0.9493   -1.5688 C   0  0  0  0  0
    0.8690    0.4556   -0.6673 C   0  0  0  0  0
   -0.0895    2.4177   -1.6098 C   0  0  0  0  0
    1.8274    0.4768   -1.6743 C   0  0  0  0  0
   -3.3278   -3.1261   -0.6996 C   0  0  0  0  0
   -0.1113    1.4409   -0.6273 C   0  0  0  0  0
   -2.9834   -0.3843   -0.3164 C   0  0  0  0  0
    1.7624    1.4967   -2.6101 C   0  0  0  0  0
    2.8648   -0.5681   -1.7145 C   0  0  0  0  0
   -3.5004   -7.1264   -2.4776 C   0  0  0  0  0
   -2.3980   -6.8228   -1.4676 C   0  0  0  0  0
   -4.8089   -6.4344   -2.1075 C   0  0  0  0  0
   -2.1974   -5.3194   -1.2863 C   0  0  0  0  0
   -4.6201   -4.9290   -1.9294 C   0  0  0  0  0
    3.9660    2.2706   -3.3849 C   0  0  0  0  0
    2.3061    1.4431   -5.0300 C   0  0  0  0  0
    5.0534    1.7801   -4.3342 C   0  0  0  0  0
    3.4822    0.9972   -5.8917 C   0  0  0  0  0
   -3.5125   -4.6140   -0.9073 C   0  0  0  0  0
    0.8253    2.4712   -2.6037 N   0  0  0  0  0
    2.7233    1.5245   -3.6259 N   0  0  0  0  0
   -1.1163    1.4458    0.4014 N   0  0  0  0  0
    2.6324   -1.6452   -2.3802 O   0  0  0  0  0
    3.9685   -0.3689   -1.0825 O   0  0  0  0  0
   -3.5956    1.7303    1.0545 O   0  0  0  0  0
   -2.9524    2.0078   -1.3556 O   0  0  0  0  0
    4.6051    1.8540   -5.6874 O   0  0  0  0  0
   -2.7674    1.3317   -0.0775 S   0  0  0  0  0
  1  3  1  0  0  0
  2  8  1  0  0  0
  4 10  1  0  0  0
  5  9  1  0  0  0
  6 23  1  0  0  0
  7 11  1  0  0  0
  7 12  1  0  0  0
  9 25  1  0  0  0
 11 24  1  0  0  0
 12 26  1  0  0  0
 13 14  1  0  0  0
 13 15  1  0  0  0
 14 16  1  0  0  0
 15 17  1  0  0  0
 16 22  1  0  0  0
 17 22  1  0  0  0
 18 20  1  0  0  0
 18 24  1  0  0  0
 19 21  1  0  0  0
 19 24  1  0  0  0
 20 30  1  0  0  0
 21 30  1  0  0  0
 22  8  1  0  0  0
 31 10  1  0  0  0
 31 25  1  0  0  0
  1  8  2  0  0  0
  2  4  2  0  0  0
  3 10  2  0  0  0
  5  7  2  0  0  0
  6  9  2  0  0  0
 11 23  2  0  0  0
 12 27  2  0  0  0
 31 28  2  0  0  0
 31 29  2  0  0  0
M  CHG  1  26  -1
M  END
> <rmsd>
0.513158023

$$$$
ZINC35397686


 31 34  0  0  0  0  0  0  0  0999 V2000
   -3.2694   -2.5862    0.4418 C   0  0  0  0  0
   -2.4305   -2.2483   -1.7986 C   0  0  0  0  0
   -3.2256   -1.2102    0.6657 C   0  0  0  0  0
   -2.3867   -0.8723   -1.5746 C   0  0  0  0  0
    1.0042    0.7942   -0.3291 C   0  0  0  0  0
   -0.0198    2.6933   -1.3301 C   0  0  0  0  0
    2.0447    0.9110   -1.2440 C   0  0  0  0  0
   -2.8718   -3.1053   -0.7904 C   0  0  0  0  0
   -0.0515    1.6984   -0.3663 C   0  0  0  0  0
   -2.7843   -0.3531   -0.3424 C   0  0  0  0  0
    1.9825    1.9411   -2.1686 C   0  0  0  0  0
    3.1619   -0.0480   -1.2025 C   0  0  0  0  0
   -2.5621   -7.0704   -2.6277 C   0  0  0  0  0
   -1.5831   -6.7013   -1.5173 C   0  0  0  0  0
   -3.9498   -6.4912   -2.3698 C   0  0  0  0  0
   -1.5208   -5.1907   -1.2993 C   0  0  0  0  0
   -3.8992   -4.9794   -2.1560 C   0  0  0  0  0
    4.1778    2.9014   -2.7290 C   0  0  0  0  0
    2.7446    1.9789   -4.5292 C   0  0  0  0  0
    5.3821    2.5171   -3.5811 C   0  0  0  0  0
    4.0255    1.6442   -5.2856 C   0  0  0  0  0
   -2.9171   -4.5987   -1.0330 C   0  0  0  0  0
    0.9736    2.8385   -2.2355 N   0  0  0  0  0
    3.0258    2.0647   -3.0920 N   0  0  0  0  0
   -1.1423    1.6035    0.5663 N   0  0  0  0  0
    3.0775   -1.1265   -1.9003 O   0  0  0  0  0
    4.1846    0.2248   -0.4698 O   0  0  0  0  0
   -3.6851    1.6788    0.9937 O   0  0  0  0  0
   -2.8518    2.0543   -1.3438 O   0  0  0  0  0
    5.0531    2.5826   -4.9685 O   0  0  0  0  0
   -2.7290    1.3694   -0.0629 S   0  0  0  0  0
  1  3  1  0  0  0
  2  8  1  0  0  0
  4 10  1  0  0  0
  5  9  1  0  0  0
  6 23  1  0  0  0
  7 11  1  0  0  0
  7 12  1  0  0  0
  9 25  1  0  0  0
 11 24  1  0  0  0
 12 26  1  0  0  0
 13 14  1  0  0  0
 13 15  1  0  0  0
 14 16  1  0  0  0
 15 17  1  0  0  0
 16 22  1  0  0  0
 17 22  1  0  0  0
 18 20  1  0  0  0
 18 24  1  0  0  0
 19 21  1  0  0  0
 19 24  1  0  0  0
 20 30  1  0  0  0
 21 30  1  0  0  0
 22  8  1  0  0  0
 31 10  1  0  0  0
 31 25  1  0  0  0
  1  8  2  0  0  0
  2  4  2  0  0  0
  3 10  2  0  0  0
  5  7  2  0  0  0
  6  9  2  0  0  0
 11 23  2  0  0  0
 12 27  2  0  0  0
 31 28  2  0  0  0
 31 29  2  0  0  0
M  CHG  1  26  -1
M  END
> <rmsd>
0.69532007

$$$$
ZINC64843424


 31 33  0  0  0  0  0  0  0  0999 V2000
   -3.5700   -2.5607    0.5585 C   0  0  0  0  0
   -2.9163   -2.3221   -1.7550 C   0  0  0  0  0
   -3.3972   -1.1898    0.7489 C   0  0  0  0  0
   -2.7435   -0.9511   -1.5648 C   0  0  0  0  0
    0.8680    0.4564   -0.6599 C   0  0  0  0  0
   -0.0607    2.4518   -1.5616 C   0  0  0  0  0
    1.8375    0.4937   -1.6559 C   0  0  0  0  0
   -3.3295   -3.1270   -0.6934 C   0  0  0  0  0
   -0.1028    1.4504   -0.6049 C   0  0  0  0  0
   -2.9840   -0.3849   -0.3129 C   0  0  0  0  0
    1.7926    1.5377   -2.5658 C   0  0  0  0  0
    2.8648   -0.5605   -1.7122 C   0  0  0  0  0
    2.4596    4.0169   -5.7031 C   0  0  0  0  0
    3.8215    4.2375   -5.0415 C   0  0  0  0  0
    2.3516    2.7391   -6.5380 C   0  0  0  0  0
    3.9119    3.7937   -3.5816 C   0  0  0  0  0
    1.7035    1.5526   -5.8248 C   0  0  0  0  0
    4.0377    2.2851   -3.3812 C   0  0  0  0  0
    2.6102    0.8380   -4.8252 C   0  0  0  0  0
   -1.7539   -5.2825    0.8165 C   0  0  0  0  0
   -2.5187   -6.9180   -0.9167 C   0  0  0  0  0
   -3.5120   -4.5929   -0.8965 C   0  0  0  0  0
   -2.2447   -5.4406   -0.6248 C   0  0  0  0  0
    0.8653    2.5213   -2.5442 N   0  0  0  0  0
    2.7648    1.5817   -3.5706 N   0  0  0  0  0
   -1.1094    1.4393    0.4036 N   0  0  0  0  0
    2.6288   -1.6178   -2.4075 O   0  0  0  0  0
    3.9634   -0.3887   -1.0635 O   0  0  0  0  0
   -3.6009    1.7326    1.0515 O   0  0  0  0  0
   -2.9450    2.0055   -1.3557 O   0  0  0  0  0
   -2.7643    1.3548   -0.0722 S   0  0  0  0  0
  1  8  1  0  0  0
  2  4  1  0  0  0
  3 10  1  0  0  0
  5  9  1  0  0  0
  6 24  1  0  0  0
  7 11  1  0  0  0
  7 12  1  0  0  0
  9 26  1  0  0  0
 11 25  1  0  0  0
 12 27  1  0  0  0
 13 14  1  0  0  0
 13 15  1  0  0  0
 14 16  1  0  0  0
 15 17  1  0  0  0
 16 18  1  0  0  0
 17 19  1  0  0  0
 18 25  1  0  0  0
 19 25  1  0  0  0
 20 23  1  0  0  0
 21 23  1  0  0  0
 22  8  1  0  0  0
 22 23  1  0  0  0
 31 10  1  0  0  0
 31 26  1  0  0  0
  1  3  2  0  0  0
  2  8  2  0  0  0
  4 10  2  0  0  0
  5  7  2  0  0  0
  6  9  2  0  0  0
 11 24  2  0  0  0
 12 28  2  0  0  0
 31 29  2  0  0  0
 31 30  2  0  0  0
M  CHG  1  27  -1
M  END
> <rmsd>
0.510367036

$$$$
ZINC64843424


 31 33  0  0  0  0  0  0  0  0999 V2000
   -3.2791   -2.5852    0.4524 C   0  0  0  0  0
   -2.4333   -2.2556   -1.7866 C   0  0  0  0  0
   -3.2322   -1.2087    0.6728 C   0  0  0  0  0
   -2.3864   -0.8791   -1.5663 C   0  0  0  0  0
    1.0043    0.7845   -0.3099 C   0  0  0  0  0
    0.0110    2.7187   -1.2738 C   0  0  0  0  0
    2.0565    0.9138   -1.2096 C   0  0  0  0  0
   -2.8796   -3.1088   -0.7773 C   0  0  0  0  0
   -0.0419    1.7000   -0.3360 C   0  0  0  0  0
   -2.7858   -0.3555   -0.3366 C   0  0  0  0  0
    2.0154    1.9675   -2.1084 C   0  0  0  0  0
    3.1636   -0.0574   -1.1800 C   0  0  0  0  0
    2.7765    4.5464   -5.1422 C   0  0  0  0  0
    4.0495    4.8588   -4.3528 C   0  0  0  0  0
    2.8467    3.2793   -5.9972 C   0  0  0  0  0
    4.0377    4.3971   -2.8957 C   0  0  0  0  0
    2.2295    2.0340   -5.3610 C   0  0  0  0  0
    4.2616    2.8992   -2.7005 C   0  0  0  0  0
    3.0920    1.3732   -4.2881 C   0  0  0  0  0
   -1.2883   -5.1641    0.8513 C   0  0  0  0  0
   -1.7585   -6.8219   -0.9637 C   0  0  0  0  0
   -2.9276   -4.5805   -1.0124 C   0  0  0  0  0
   -1.6289   -5.3333   -0.6315 C   0  0  0  0  0
    1.0162    2.8766   -2.1638 N   0  0  0  0  0
    3.0706    2.1039   -3.0165 N   0  0  0  0  0
   -1.1341    1.5937    0.5729 N   0  0  0  0  0
    3.0766   -1.1170   -1.9058 O   0  0  0  0  0
    4.1803    0.1863   -0.4289 O   0  0  0  0  0
   -3.6905    1.6836    0.9861 O   0  0  0  0  0
   -2.8363    2.0491   -1.3455 O   0  0  0  0  0
   -2.7259    1.3912   -0.0577 S   0  0  0  0  0
  1  8  1  0  0  0
  2  4  1  0  0  0
  3 10  1  0  0  0
  5  9  1  0  0  0
  6 24  1  0  0  0
  7 11  1  0  0  0
  7 12  1  0  0  0
  9 26  1  0  0  0
 11 25  1  0  0  0
 12 27  1  0  0  0
 13 14  1  0  0  0
 13 15  1  0  0  0
 14 16  1  0  0  0
 15 17  1  0  0  0
 16 18  1  0  0  0
 17 19  1  0  0  0
 18 25  1  0  0  0
 19 25  1  0  0  0
 20 23  1  0  0  0
 21 23  1  0  0  0
 22  8  1  0  0  0
 22 23  1  0  0  0
 31 10  1  0  0  0
 31 26  1  0  0  0
  1  3  2  0  0  0
  2  8  2  0  0  0
  4 10  2  0  0  0
  5  7  2  0  0  0
  6  9  2  0  0  0
 11 24  2  0  0  0
 12 28  2  0  0  0
 31 29  2  0  0  0
 31 30  2  0  0  0
M  CHG  1  27  -1
M  END
> <rmsd>
0.689282954

$$$$
ZINC35397614


 31 33  0  0  0  0  0  0  0  0999 V2000
   -2.4345   -2.2564   -1.7862 C   0  0  0  0  0
   -3.2804   -2.5841    0.4531 C   0  0  0  0  0
   -2.3867   -0.8798   -1.5667 C   0  0  0  0  0
   -3.2327   -1.2074    0.6725 C   0  0  0  0  0
    1.0045    0.7847   -0.3100 C   0  0  0  0  0
    0.0113    2.7191   -1.2736 C   0  0  0  0  0
    2.0568    0.9141   -1.2096 C   0  0  0  0  0
   -2.8814   -3.1086   -0.7763 C   0  0  0  0  0
   -0.0417    1.7002   -0.3361 C   0  0  0  0  0
   -2.7857   -0.3552   -0.3373 C   0  0  0  0  0
    2.0158    1.9680   -2.1082 C   0  0  0  0  0
    3.1638   -0.0571   -1.1801 C   0  0  0  0  0
    2.7773    4.5476   -5.1414 C   0  0  0  0  0
    4.0501    4.8597   -4.3517 C   0  0  0  0  0
    2.8475    3.2807   -5.9966 C   0  0  0  0  0
    4.0383    4.3977   -2.8948 C   0  0  0  0  0
    2.2301    2.0353   -5.3607 C   0  0  0  0  0
    4.2620    2.8998   -2.6999 C   0  0  0  0  0
    3.0925    1.3742   -4.2879 C   0  0  0  0  0
   -1.5218   -5.1512   -1.3464 C   0  0  0  0  0
   -3.8778   -4.9293   -2.2043 C   0  0  0  0  0
   -3.4537   -5.4343    0.1928 C   0  0  0  0  0
   -2.9346   -4.5803   -1.0113 C   0  0  0  0  0
    1.0166    2.8771   -2.1635 N   0  0  0  0  0
    3.0710    2.1046   -3.0162 N   0  0  0  0  0
   -1.1340    1.5938    0.5728 N   0  0  0  0  0
    3.0769   -1.1165   -1.9061 O   0  0  0  0  0
    4.1805    0.1864   -0.4288 O   0  0  0  0  0
   -3.6904    1.6836    0.9857 O   0  0  0  0  0
   -2.8360    2.0497   -1.3457 O   0  0  0  0  0
   -2.7257    1.3915   -0.0581 S   0  0  0  0  0
  1  8  1  0  0  0
  2  4  1  0  0  0
  3 10  1  0  0  0
  5  9  1  0  0  0
  6 24  1  0  0  0
  7 11  1  0  0  0
  7 12  1  0  0  0
  9 26  1  0  0  0
 11 25  1  0  0  0
 12 27  1  0  0  0
 13 14  1  0  0  0
 13 15  1  0  0  0
 14 16  1  0  0  0
 15 17  1  0  0  0
 16 18  1  0  0  0
 17 19  1  0  0  0
 18 25  1  0  0  0
 19 25  1  0  0  0
 20 23  1  0  0  0
 21 23  1  0  0  0
 22 23  1  0  0  0
 23  8  1  0  0  0
 31 10  1  0  0  0
 31 26  1  0  0  0
  1  3  2  0  0  0
  2  8  2  0  0  0
  4 10  2  0  0  0
  5  7  2  0  0  0
  6  9  2  0  0  0
 11 24  2  0  0  0
 12 28  2  0  0  0
 31 29  2  0  0  0
 31 30  2  0  0  0
M  CHG  1  27  -1
M  END
> <rmsd>
0.688766122

$$$$
ZINC35397614


 31 33  0  0  0  0  0  0  0  0999 V2000
   -2.9175   -2.3227   -1.7546 C   0  0  0  0  0
   -3.5711   -2.5596    0.5592 C   0  0  0  0  0
   -2.7439   -0.9517   -1.5653 C   0  0  0  0  0
   -3.3976   -1.1885    0.7486 C   0  0  0  0  0
    0.8681    0.4567   -0.6602 C   0  0  0  0  0
   -0.0604    2.4522   -1.5615 C   0  0  0  0  0
    1.8377    0.4941   -1.6560 C   0  0  0  0  0
   -3.3311   -3.1266   -0.6923 C   0  0  0  0  0
   -0.1026    1.4506   -0.6050 C   0  0  0  0  0
   -2.9839   -0.3846   -0.3137 C   0  0  0  0  0
    1.7930    1.5384   -2.5656 C   0  0  0  0  0
    2.8650   -0.5601   -1.7124 C   0  0  0  0  0
    2.4604    4.0182   -5.7024 C   0  0  0  0  0
    3.8222    4.2386   -5.0406 C   0  0  0  0  0
    2.3524    2.7406   -6.5376 C   0  0  0  0  0
    3.9125    3.7945   -3.5808 C   0  0  0  0  0
    1.7042    1.5540   -5.8247 C   0  0  0  0  0
    4.0382    2.2859   -3.3808 C   0  0  0  0  0
    2.6107    0.8392   -4.8252 C   0  0  0  0  0
   -2.1918   -5.2749   -1.3499 C   0  0  0  0  0
   -4.5943   -4.8792   -1.9883 C   0  0  0  0  0
   -3.9859   -5.3901    0.3675 C   0  0  0  0  0
   -3.5188   -4.5921   -0.8949 C   0  0  0  0  0
    0.8657    2.5219   -2.5439 N   0  0  0  0  0
    2.7653    1.5826   -3.5704 N   0  0  0  0  0
   -1.1093    1.4393    0.4034 N   0  0  0  0  0
    2.6290   -1.6172   -2.4081 O   0  0  0  0  0
    3.9636   -0.3885   -1.0637 O   0  0  0  0  0
   -3.6009    1.7326    1.0511 O   0  0  0  0  0
   -2.9447    2.0060   -1.3560 O   0  0  0  0  0
   -2.7642    1.3550   -0.0726 S   0  0  0  0  0
  1  8  1  0  0  0
  2  4  1  0  0  0
  3 10  1  0  0  0
  5  9  1  0  0  0
  6 24  1  0  0  0
  7 11  1  0  0  0
  7 12  1  0  0  0
  9 26  1  0  0  0
 11 25  1  0  0  0
 12 27  1  0  0  0
 13 14  1  0  0  0
 13 15  1  0  0  0
 14 16  1  0  0  0
 15 17  1  0  0  0
 16 18  1  0  0  0
 17 19  1  0  0  0
 18 25  1  0  0  0
 19 25  1  0  0  0
 20 23  1  0  0  0
 21 23  1  0  0  0
 22 23  1  0  0  0
 23  8  1  0  0  0
 31 10  1  0  0  0
 31 26  1  0  0  0
  1  3  2  0  0  0
  2  8  2  0  0  0
  4 10  2  0  0  0
  5  7  2  0  0  0
  6  9  2  0  0  0
 11 24  2  0  0  0
 12 28  2  0  0  0
 31 29  2  0  0  0
 31 30  2  0  0  0
M  CHG  1  27  -1
M  END
> <rmsd>
0.509868085

$$$$
ZINC64580597


 31 33  0  0  0  0  0  0  0  0999 V2000
   -2.4218   -2.2392   -1.8100 C   0  0  0  0  0
   -3.2457   -2.5878    0.4342 C   0  0  0  0  0
    1.0215    2.8841   -2.1899 C   0  0  0  0  0
   -0.0379    2.7670   -1.2903 C   0  0  0  0  0
   -2.3839   -0.8635   -1.5824 C   0  0  0  0  0
   -3.2079   -1.2121    0.6618 C   0  0  0  0  0
    0.9957    0.8066   -0.3283 C   0  0  0  0  0
    2.0552    0.9237   -1.2280 C   0  0  0  0  0
   -2.8527   -3.1013   -0.8018 C   0  0  0  0  0
    2.0681    1.9625   -2.1588 C   0  0  0  0  0
   -0.0509    1.7283   -0.3594 C   0  0  0  0  0
   -2.7770   -0.3500   -0.3466 C   0  0  0  0  0
    3.1492   -0.0642   -1.1737 C   0  0  0  0  0
    4.2719    2.9160   -2.6646 C   0  0  0  0  0
    2.8453    2.0461   -4.5095 C   0  0  0  0  0
    5.5184    2.5123   -3.4404 C   0  0  0  0  0
    4.0957    1.6489   -5.2838 C   0  0  0  0  0
    6.1091    2.4561   -7.2097 C   0  0  0  0  0
   -1.4806   -5.1286   -1.3960 C   0  0  0  0  0
   -3.8457   -4.9217   -2.2324 C   0  0  0  0  0
   -3.3968   -5.4377    0.1579 C   0  0  0  0  0
    6.4547    2.3145   -5.7436 C   0  0  0  0  0
   -2.8954   -4.5719   -1.0454 C   0  0  0  0  0
    3.1217    2.0975   -3.0702 N   0  0  0  0  0
   -1.1356    1.6087    0.5612 N   0  0  0  0  0
    5.2264    2.5757   -4.9181 N   0  0  0  0  0
    3.0532   -1.1302   -1.8872 O   0  0  0  0  0
    4.1596    0.1759   -0.4147 O   0  0  0  0  0
   -3.6864    1.6727    0.9978 O   0  0  0  0  0
   -2.8579    2.0605   -1.3395 O   0  0  0  0  0
   -2.7294    1.3954   -0.0571 S   0  0  0  0  0
  1  9  1  0  0  0
  2  6  1  0  0  0
  3 10  1  0  0  0
  4 11  1  0  0  0
  5 12  1  0  0  0
  7  8  1  0  0  0
  8 13  1  0  0  0
 10 24  1  0  0  0
 11 25  1  0  0  0
 13 27  1  0  0  0
 14 16  1  0  0  0
 14 24  1  0  0  0
 15 17  1  0  0  0
 15 24  1  0  0  0
 16 26  1  0  0  0
 17 26  1  0  0  0
 18 22  1  0  0  0
 19 23  1  0  0  0
 20 23  1  0  0  0
 21 23  1  0  0  0
 22 26  1  0  0  0
 23  9  1  0  0  0
 31 12  1  0  0  0
 31 25  1  0  0  0
  1  5  2  0  0  0
  2  9  2  0  0  0
  3  4  2  0  0  0
  6 12  2  0  0  0
  7 11  2  0  0  0
  8 10  2  0  0  0
 13 28  2  0  0  0
 31 29  2  0  0  0
 31 30  2  0  0  0
M  CHG  2  26   1  27  -1
M  END
> <rmsd>
0.706544578

$$$$
ZINC64580597


 31 33  0  0  0  0  0  0  0  0999 V2000
   -2.9074   -2.3078   -1.7770 C   0  0  0  0  0
   -3.5408   -2.5653    0.5401 C   0  0  0  0  0
    0.8693    2.5249   -2.5706 C   0  0  0  0  0
   -0.1066    2.5014   -1.5743 C   0  0  0  0  0
   -2.7424   -0.9369   -1.5796 C   0  0  0  0  0
   -3.3758   -1.1944    0.7376 C   0  0  0  0  0
    0.8589    0.4770   -0.6763 C   0  0  0  0  0
    1.8348    0.5005   -1.6727 C   0  0  0  0  0
   -3.3067   -3.1221   -0.7172 C   0  0  0  0  0
    1.8400    1.5244   -2.6198 C   0  0  0  0  0
   -0.1119    1.4775   -0.6271 C   0  0  0  0  0
   -2.9766   -0.3802   -0.3223 C   0  0  0  0  0
    2.8496   -0.5695   -1.7020 C   0  0  0  0  0
    4.0533    2.2963   -3.3460 C   0  0  0  0  0
    2.3966    1.5202   -5.0337 C   0  0  0  0  0
    5.1864    1.7874   -4.2266 C   0  0  0  0  0
    3.5342    1.0175   -5.9134 C   0  0  0  0  0
    5.4136    1.6424   -8.0329 C   0  0  0  0  0
   -2.1569   -5.2573   -1.3986 C   0  0  0  0  0
   -4.5672   -4.8749   -2.0153 C   0  0  0  0  0
   -3.9364   -5.3976    0.3321 C   0  0  0  0  0
    5.8837    1.4907   -6.6028 C   0  0  0  0  0
   -3.4853   -4.5875   -0.9284 C   0  0  0  0  0
    2.8104    1.5660   -3.6276 N   0  0  0  0  0
   -1.1111    1.4538    0.3924 N   0  0  0  0  0
    4.7624    1.8568   -5.6717 N   0  0  0  0  0
    2.6051   -1.6327   -2.3835 O   0  0  0  0  0
    3.9426   -0.4009   -1.0448 O   0  0  0  0  0
   -3.5969    1.7227    1.0630 O   0  0  0  0  0
   -2.9647    2.0179   -1.3480 O   0  0  0  0  0
   -2.7677    1.3593   -0.0710 S   0  0  0  0  0
  1  9  1  0  0  0
  2  6  1  0  0  0
  3 10  1  0  0  0
  4 11  1  0  0  0
  5 12  1  0  0  0
  7  8  1  0  0  0
  8 13  1  0  0  0
 10 24  1  0  0  0
 11 25  1  0  0  0
 13 27  1  0  0  0
 14 16  1  0  0  0
 14 24  1  0  0  0
 15 17  1  0  0  0
 15 24  1  0  0  0
 16 26  1  0  0  0
 17 26  1  0  0  0
 18 22  1  0  0  0
 19 23  1  0  0  0
 20 23  1  0  0  0
 21 23  1  0  0  0
 22 26  1  0  0  0
 23  9  1  0  0  0
 31 12  1  0  0  0
 31 25  1  0  0  0
  1  5  2  0  0  0
  2  9  2  0  0  0
  3  4  2  0  0  0
  6 12  2  0  0  0
  7 11  2  0  0  0
  8 10  2  0  0  0
 13 28  2  0  0  0
 31 29  2  0  0  0
 31 30  2  0  0  0
M  CHG  2  26   1  27  -1
M  END
> <rmsd>
0.525661886

$$$$
ZINC64580588


 31 33  0  0  0  0  0  0  0  0999 V2000
   -3.5398   -2.5663    0.5396 C   0  0  0  0  0
   -2.9064   -2.3072   -1.7775 C   0  0  0  0  0
    0.8688    2.5242   -2.5714 C   0  0  0  0  0
   -0.1070    2.5009   -1.5750 C   0  0  0  0  0
   -3.3755   -1.1954    0.7378 C   0  0  0  0  0
   -2.7422   -0.9363   -1.5793 C   0  0  0  0  0
    0.8587    0.4768   -0.6765 C   0  0  0  0  0
    1.8344    0.5000   -1.6730 C   0  0  0  0  0
   -3.3052   -3.1222   -0.7181 C   0  0  0  0  0
    1.8395    1.5237   -2.6204 C   0  0  0  0  0
   -0.1121    1.4773   -0.6275 C   0  0  0  0  0
   -2.9768   -0.3804   -0.3216 C   0  0  0  0  0
    2.8493   -0.5700   -1.7022 C   0  0  0  0  0
    4.0526    2.2954   -3.3471 C   0  0  0  0  0
    2.3957    1.5187   -5.0344 C   0  0  0  0  0
    5.1856    1.7862   -4.2278 C   0  0  0  0  0
    3.5332    1.0157   -5.9141 C   0  0  0  0  0
    5.4122    1.6401   -8.0341 C   0  0  0  0  0
   -1.7018   -5.2764    0.7644 C   0  0  0  0  0
   -2.4685   -6.9057   -0.9739 C   0  0  0  0  0
   -3.4786   -4.5881   -0.9298 C   0  0  0  0  0
    5.8826    1.4889   -6.6040 C   0  0  0  0  0
   -2.2030   -5.4282   -0.6741 C   0  0  0  0  0
    2.8097    1.5650   -3.6284 N   0  0  0  0  0
   -1.1112    1.4539    0.3922 N   0  0  0  0  0
    4.7614    1.8552   -5.6729 N   0  0  0  0  0
    2.6047   -1.6334   -2.3833 O   0  0  0  0  0
    3.9423   -0.4011   -1.0452 O   0  0  0  0  0
   -3.5969    1.7229    1.0631 O   0  0  0  0  0
   -2.9651    2.0174   -1.3481 O   0  0  0  0  0
   -2.7679    1.3592   -0.0709 S   0  0  0  0  0
  1  9  1  0  0  0
  2  6  1  0  0  0
  3 10  1  0  0  0
  4 11  1  0  0  0
  5 12  1  0  0  0
  7  8  1  0  0  0
  8 13  1  0  0  0
 10 24  1  0  0  0
 11 25  1  0  0  0
 13 27  1  0  0  0
 14 16  1  0  0  0
 14 24  1  0  0  0
 15 17  1  0  0  0
 15 24  1  0  0  0
 16 26  1  0  0  0
 17 26  1  0  0  0
 18 22  1  0  0  0
 19 23  1  0  0  0
 20 23  1  0  0  0
 21  9  1  0  0  0
 21 23  1  0  0  0
 22 26  1  0  0  0
 31 12  1  0  0  0
 31 25  1  0  0  0
  1  5  2  0  0  0
  2  9  2  0  0  0
  3  4  2  0  0  0
  6 12  2  0  0  0
  7 11  2  0  0  0
  8 10  2  0  0  0
 13 28  2  0  0  0
 31 29  2  0  0  0
 31 30  2  0  0  0
M  CHG  2  26   1  27  -1
M  END
> <rmsd>
0.526365697

$$$$
ZINC64580588


 31 33  0  0  0  0  0  0  0  0999 V2000
   -3.2445   -2.5887    0.4336 C   0  0  0  0  0
   -2.4208   -2.2383   -1.8105 C   0  0  0  0  0
    1.0210    2.8835   -2.1907 C   0  0  0  0  0
   -0.0383    2.7666   -1.2909 C   0  0  0  0  0
   -3.2074   -1.2131    0.6619 C   0  0  0  0  0
   -2.3837   -0.8628   -1.5822 C   0  0  0  0  0
    0.9955    0.8065   -0.3285 C   0  0  0  0  0
    2.0548    0.9234   -1.2284 C   0  0  0  0  0
   -2.8511   -3.1013   -0.8026 C   0  0  0  0  0
    2.0676    1.9619   -2.1595 C   0  0  0  0  0
   -0.0511    1.7282   -0.3598 C   0  0  0  0  0
   -2.7771   -0.3502   -0.3460 C   0  0  0  0  0
    3.1488   -0.0645   -1.1741 C   0  0  0  0  0
    4.2713    2.9153   -2.6659 C   0  0  0  0  0
    2.8445    2.0448   -4.5104 C   0  0  0  0  0
    5.5177    2.5114   -3.4418 C   0  0  0  0  0
    4.0948    1.6475   -5.2847 C   0  0  0  0  0
    6.1079    2.4541   -7.2112 C   0  0  0  0  0
   -1.2283   -5.1527    0.7996 C   0  0  0  0  0
   -1.6999   -6.8036   -1.0214 C   0  0  0  0  0
   -2.8885   -4.5720   -1.0464 C   0  0  0  0  0
    6.4537    2.3130   -5.7450 C   0  0  0  0  0
   -1.5802   -5.3159   -0.6812 C   0  0  0  0  0
    3.1211    2.0967   -3.0712 N   0  0  0  0  0
   -1.1357    1.6088    0.5610 N   0  0  0  0  0
    5.2256    2.5744   -4.9195 N   0  0  0  0  0
    3.0529   -1.1307   -1.8873 O   0  0  0  0  0
    4.1594    0.1758   -0.4153 O   0  0  0  0  0
   -3.6864    1.6729    0.9980 O   0  0  0  0  0
   -2.8583    2.0601   -1.3395 O   0  0  0  0  0
   -2.7296    1.3953   -0.0571 S   0  0  0  0  0
  1  9  1  0  0  0
  2  6  1  0  0  0
  3 10  1  0  0  0
  4 11  1  0  0  0
  5 12  1  0  0  0
  7  8  1  0  0  0
  8 13  1  0  0  0
 10 24  1  0  0  0
 11 25  1  0  0  0
 13 27  1  0  0  0
 14 16  1  0  0  0
 14 24  1  0  0  0
 15 17  1  0  0  0
 15 24  1  0  0  0
 16 26  1  0  0  0
 17 26  1  0  0  0
 18 22  1  0  0  0
 19 23  1  0  0  0
 20 23  1  0  0  0
 21  9  1  0  0  0
 21 23  1  0  0  0
 22 26  1  0  0  0
 31 12  1  0  0  0
 31 25  1  0  0  0
  1  5  2  0  0  0
  2  9  2  0  0  0
  3  4  2  0  0  0
  6 12  2  0  0  0
  7 11  2  0  0  0
  8 10  2  0  0  0
 13 28  2  0  0  0
 31 29  2  0  0  0
 31 30  2  0  0  0
M  CHG  2  26   1  27  -1
M  END
> <rmsd>
0.707242489

$$$$
ZINC64580572


 31 33  0  0  0  0  0  0  0  0999 V2000
    1.0095    2.8741   -2.2073 C   0  0  0  0  0
   -0.0472    2.7605   -1.3039 C   0  0  0  0  0
    0.9938    0.8089   -0.3319 C   0  0  0  0  0
   -2.7215   -2.6313    0.4803 C   0  0  0  0  0
   -2.9033   -0.8262   -1.6389 C   0  0  0  0  0
    2.0504    0.9225   -1.2355 C   0  0  0  0  0
   -2.8488   -3.1010   -0.8269 C   0  0  0  0  0
   -2.6853   -1.2591    0.7279 C   0  0  0  0  0
   -2.9397   -2.1985   -1.8865 C   0  0  0  0  0
    2.0582    1.9551   -2.1732 C   0  0  0  0  0
   -0.0550    1.7279   -0.3661 C   0  0  0  0  0
   -2.7762   -0.3565   -0.3317 C   0  0  0  0  0
    3.1468   -0.0625   -1.1778 C   0  0  0  0  0
    4.2583    2.9103   -2.6916 C   0  0  0  0  0
    2.8286    2.0249   -4.5266 C   0  0  0  0  0
    5.5035    2.5044   -3.4683 C   0  0  0  0  0
    4.0776    1.6255   -5.3018 C   0  0  0  0  0
   -2.8856   -4.5745   -1.0676 C   0  0  0  0  0
   -2.5475   -0.7886    2.1392 C   0  0  0  0  0
   -3.0767   -2.6783   -3.2943 C   0  0  0  0  0
    8.5166    3.3533   -6.6854 C   0  0  0  0  0
    7.2829    3.5538   -5.8203 C   0  0  0  0  0
    6.4337    2.2935   -5.7728 C   0  0  0  0  0
    3.1089    2.0865   -3.0885 N   0  0  0  0  0
   -1.1368    1.6120    0.5584 N   0  0  0  0  0
    5.2072    2.5573   -4.9455 N   0  0  0  0  0
    3.0513   -1.1334   -1.8840 O   0  0  0  0  0
    4.1589    0.1849   -0.4233 O   0  0  0  0  0
   -3.6865    1.6730    1.0019 O   0  0  0  0  0
   -2.8656    2.0472   -1.3403 O   0  0  0  0  0
   -2.7319    1.3909   -0.0540 S   0  0  0  0  0
  1 10  1  0  0  0
  2 11  1  0  0  0
  3  6  1  0  0  0
  4  8  1  0  0  0
  5 12  1  0  0  0
  6 13  1  0  0  0
  7  9  1  0  0  0
 10 24  1  0  0  0
 11 25  1  0  0  0
 13 27  1  0  0  0
 14 16  1  0  0  0
 14 24  1  0  0  0
 15 17  1  0  0  0
 15 24  1  0  0  0
 16 26  1  0  0  0
 17 26  1  0  0  0
 18  7  1  0  0  0
 19  8  1  0  0  0
 20  9  1  0  0  0
 21 22  1  0  0  0
 22 23  1  0  0  0
 23 26  1  0  0  0
 31 12  1  0  0  0
 31 25  1  0  0  0
  1  2  2  0  0  0
  3 11  2  0  0  0
  4  7  2  0  0  0
  5  9  2  0  0  0
  6 10  2  0  0  0
  8 12  2  0  0  0
 13 28  2  0  0  0
 31 29  2  0  0  0
 31 30  2  0  0  0
M  CHG  2  26   1  27  -1
M  END
> <rmsd>
0.710047245

$$$$
ZINC64580572


 31 33  0  0  0  0  0  0  0  0999 V2000
    0.8578    2.5119   -2.5850 C   0  0  0  0  0
   -0.1154    2.4928   -1.5860 C   0  0  0  0  0
    0.8573    0.4768   -0.6769 C   0  0  0  0  0
   -3.0215   -2.6492    0.5402 C   0  0  0  0  0
   -3.2600   -0.8607   -1.5874 C   0  0  0  0  0
    1.8305    0.4958   -1.6761 C   0  0  0  0  0
   -3.3064   -3.1229   -0.7405 C   0  0  0  0  0
   -2.8560   -1.2814    0.7571 C   0  0  0  0  0
   -3.4256   -2.2286   -1.8043 C   0  0  0  0  0
    1.8307    1.5134   -2.6301 C   0  0  0  0  0
   -0.1157    1.4753   -0.6319 C   0  0  0  0  0
   -2.9752   -0.3871   -0.3067 C   0  0  0  0  0
    2.8477   -0.5720   -1.7010 C   0  0  0  0  0
    4.0402    2.2855   -3.3674 C   0  0  0  0  0
    2.3809    1.4942   -5.0454 C   0  0  0  0  0
    5.1721    1.7733   -4.2477 C   0  0  0  0  0
    3.5172    0.9882   -5.9247 C   0  0  0  0  0
   -3.4797   -4.5916   -0.9485 C   0  0  0  0  0
   -2.5508   -0.8066    2.1403 C   0  0  0  0  0
   -3.7304   -2.7128   -3.1840 C   0  0  0  0  0
    7.9282    2.3433   -7.7446 C   0  0  0  0  0
    6.7999    2.6509   -6.7735 C   0  0  0  0  0
    5.8638    1.4623   -6.6237 C   0  0  0  0  0
    2.7983    1.5505   -3.6408 N   0  0  0  0  0
   -1.1121    1.4562    0.3905 N   0  0  0  0  0
    4.7441    1.8320   -5.6921 N   0  0  0  0  0
    2.6039   -1.6403   -2.3746 O   0  0  0  0  0
    3.9420   -0.3964   -1.0479 O   0  0  0  0  0
   -3.5967    1.7237    1.0660 O   0  0  0  0  0
   -2.9717    2.0041   -1.3486 O   0  0  0  0  0
   -2.7697    1.3546   -0.0678 S   0  0  0  0  0
  1 10  1  0  0  0
  2 11  1  0  0  0
  3  6  1  0  0  0
  4  8  1  0  0  0
  5 12  1  0  0  0
  6 13  1  0  0  0
  7  9  1  0  0  0
 10 24  1  0  0  0
 11 25  1  0  0  0
 13 27  1  0  0  0
 14 16  1  0  0  0
 14 24  1  0  0  0
 15 17  1  0  0  0
 15 24  1  0  0  0
 16 26  1  0  0  0
 17 26  1  0  0  0
 18  7  1  0  0  0
 19  8  1  0  0  0
 20  9  1  0  0  0
 21 22  1  0  0  0
 22 23  1  0  0  0
 23 26  1  0  0  0
 31 12  1  0  0  0
 31 25  1  0  0  0
  1  2  2  0  0  0
  3 11  2  0  0  0
  4  7  2  0  0  0
  5  9  2  0  0  0
  6 10  2  0  0  0
  8 12  2  0  0  0
 13 28  2  0  0  0
 31 29  2  0  0  0
 31 30  2  0  0  0
M  CHG  2  26   1  27  -1
M  END
> <rmsd>
0.528393447

$$$$
ZINC58009138


 31 33  0  0  0  0  0  0  0  0999 V2000
    0.8690    2.5248   -2.5705 C   0  0  0  0  0
   -0.1069    2.5014   -1.5742 C   0  0  0  0  0
    0.8584    0.4769   -0.6762 C   0  0  0  0  0
   -2.9184   -2.6390    0.5326 C   0  0  0  0  0
   -3.5258   -2.2342   -1.7704 C   0  0  0  0  0
    1.8343    0.5003   -1.6726 C   0  0  0  0  0
   -3.3038   -3.1221   -0.7178 C   0  0  0  0  0
   -2.7551   -1.2680    0.7305 C   0  0  0  0  0
   -3.3625   -0.8631   -1.5725 C   0  0  0  0  0
    1.8396    1.5242   -2.6197 C   0  0  0  0  0
   -0.1123    1.4775   -0.6270 C   0  0  0  0  0
   -2.9771   -0.3800   -0.3220 C   0  0  0  0  0
    2.8491   -0.5699   -1.7019 C   0  0  0  0  0
    4.0529    2.2958   -3.3459 C   0  0  0  0  0
    2.3962    1.5199   -5.0336 C   0  0  0  0  0
    5.1860    1.7868   -4.2266 C   0  0  0  0  0
    3.5337    1.0170   -5.9133 C   0  0  0  0  0
   -3.4774   -4.5884   -0.9298 C   0  0  0  0  0
   -2.3403   -0.7878    2.0835 C   0  0  0  0  0
   -3.6087    0.0579   -2.7233 C   0  0  0  0  0
    7.9528    2.3735   -7.7122 C   0  0  0  0  0
    6.8227    2.6774   -6.7421 C   0  0  0  0  0
    5.8832    1.4901   -6.6028 C   0  0  0  0  0
    2.8100    1.5657   -3.6275 N   0  0  0  0  0
   -1.1114    1.4539    0.3926 N   0  0  0  0  0
    4.7620    1.8563   -5.6717 N   0  0  0  0  0
    2.6044   -1.6330   -2.3834 O   0  0  0  0  0
    3.9420   -0.4013   -1.0447 O   0  0  0  0  0
   -3.5972    1.7230    1.0632 O   0  0  0  0  0
   -2.9651    2.0181   -1.3478 O   0  0  0  0  0
   -2.7681    1.3595   -0.0708 S   0  0  0  0  0
  1 10  1  0  0  0
  2 11  1  0  0  0
  3  6  1  0  0  0
  4  7  1  0  0  0
  5  9  1  0  0  0
  6 13  1  0  0  0
  8 12  1  0  0  0
 10 24  1  0  0  0
 11 25  1  0  0  0
 13 27  1  0  0  0
 14 16  1  0  0  0
 14 24  1  0  0  0
 15 17  1  0  0  0
 15 24  1  0  0  0
 16 26  1  0  0  0
 17 26  1  0  0  0
 18  7  1  0  0  0
 19  8  1  0  0  0
 20  9  1  0  0  0
 21 22  1  0  0  0
 22 23  1  0  0  0
 23 26  1  0  0  0
 31 12  1  0  0  0
 31 25  1  0  0  0
  1  2  2  0  0  0
  3 11  2  0  0  0
  4  8  2  0  0  0
  5  7  2  0  0  0
  6 10  2  0  0  0
  9 12  2  0  0  0
 13 28  2  0  0  0
 31 29  2  0  0  0
 31 30  2  0  0  0
M  CHG  2  26   1  27  -1
M  END
> <rmsd>
0.526647806

$$$$
ZINC58009138


 31 33  0  0  0  0  0  0  0  0999 V2000
    1.0213    2.8840   -2.1897 C   0  0  0  0  0
   -0.0382    2.7669   -1.2901 C   0  0  0  0  0
    0.9953    0.8065   -0.3281 C   0  0  0  0  0
   -2.6215   -2.6131    0.4843 C   0  0  0  0  0
   -3.0419   -2.2135   -1.8610 C   0  0  0  0  0
    2.0547    0.9235   -1.2278 C   0  0  0  0  0
   -2.8498   -3.1011   -0.8022 C   0  0  0  0  0
   -2.5853   -1.2375    0.7122 C   0  0  0  0  0
   -3.0058   -0.8378   -1.6330 C   0  0  0  0  0
    2.0677    1.9623   -2.1586 C   0  0  0  0  0
   -0.0513    1.7282   -0.3592 C   0  0  0  0  0
   -2.7775   -0.3498   -0.3464 C   0  0  0  0  0
    3.1486   -0.0645   -1.1736 C   0  0  0  0  0
    4.2716    2.9155   -2.6644 C   0  0  0  0  0
    2.8450    2.0458   -4.5093 C   0  0  0  0  0
    5.5181    2.5118   -3.4402 C   0  0  0  0  0
    4.0953    1.6485   -5.2836 C   0  0  0  0  0
   -2.8874   -4.5722   -1.0462 C   0  0  0  0  0
   -2.3371   -0.7521    2.1036 C   0  0  0  0  0
   -3.2155    0.0827   -2.7914 C   0  0  0  0  0
    8.5425    3.3747   -6.6429 C   0  0  0  0  0
    7.3067    3.5725   -5.7801 C   0  0  0  0  0
    6.4544    2.3140   -5.7434 C   0  0  0  0  0
    3.1214    2.0972   -3.0701 N   0  0  0  0  0
   -1.1360    1.6087    0.5614 N   0  0  0  0  0
    5.2262    2.5753   -4.9179 N   0  0  0  0  0
    3.0526   -1.1305   -1.8871 O   0  0  0  0  0
    4.1591    0.1754   -0.4146 O   0  0  0  0  0
   -3.6867    1.6730    0.9980 O   0  0  0  0  0
   -2.8583    2.0607   -1.3393 O   0  0  0  0  0
   -2.7298    1.3956   -0.0570 S   0  0  0  0  0
  1 10  1  0  0  0
  2 11  1  0  0  0
  3  6  1  0  0  0
  4  7  1  0  0  0
  5  9  1  0  0  0
  6 13  1  0  0  0
  8 12  1  0  0  0
 10 24  1  0  0  0
 11 25  1  0  0  0
 13 27  1  0  0  0
 14 16  1  0  0  0
 14 24  1  0  0  0
 15 17  1  0  0  0
 15 24  1  0  0  0
 16 26  1  0  0  0
 17 26  1  0  0  0
 18  7  1  0  0  0
 19  8  1  0  0  0
 20  9  1  0  0  0
 21 22  1  0  0  0
 22 23  1  0  0  0
 23 26  1  0  0  0
 31 12  1  0  0  0
 31 25  1  0  0  0
  1  2  2  0  0  0
  3 11  2  0  0  0
  4  8  2  0  0  0
  5  7  2  0  0  0
  6 10  2  0  0  0
  9 12  2  0  0  0
 13 28  2  0  0  0
 31 29  2  0  0  0
 31 30  2  0  0  0
M  CHG  2  26   1  27  -1
M  END
> <rmsd>
0.707466304

$$$$
ZINC58009274


 31 33  0  0  0  0  0  0  0  0999 V2000
    1.9424    1.5937   -2.4784 C   0  0  0  0  0
    1.0431    2.6557   -2.3843 C   0  0  0  0  0
    0.8206    0.4820   -0.6499 C   0  0  0  0  0
   -2.8229   -2.6376    0.5143 C   0  0  0  0  0
   -3.3731   -2.2382   -1.8040 C   0  0  0  0  0
    1.8312    0.5067   -1.6112 C   0  0  0  0  0
   -3.1614   -3.1247   -0.7481 C   0  0  0  0  0
   -2.6963   -1.2639    0.7209 C   0  0  0  0  0
   -3.2464   -0.8645   -1.5975 C   0  0  0  0  0
    0.0326    2.6310   -1.4232 C   0  0  0  0  0
   -0.0787    1.5442   -0.5559 C   0  0  0  0  0
   -2.9079   -0.3774   -0.3351 C   0  0  0  0  0
    2.7801   -0.6139   -1.7109 C   0  0  0  0  0
   -1.1535    4.4379   -2.5852 C   0  0  0  0  0
   -0.9519    4.4828   -0.1047 C   0  0  0  0  0
   -2.5002    5.1416   -2.4867 C   0  0  0  0  0
   -2.2973    5.1914   -0.0121 C   0  0  0  0  0
   -3.2958   -4.5936   -0.9693 C   0  0  0  0  0
   -2.3313   -0.7794    2.0866 C   0  0  0  0  0
   -3.4802    0.0549   -2.7521 C   0  0  0  0  0
   -4.7763    8.8737   -0.1060 C   0  0  0  0  0
   -3.5212    8.0308   -0.2636 C   0  0  0  0  0
   -3.7712    6.8363   -1.1703 C   0  0  0  0  0
   -0.8593    3.7069   -1.3456 N   0  0  0  0  0
   -1.1068    1.4966    0.4378 N   0  0  0  0  0
   -2.5171    6.0128   -1.2564 N   0  0  0  0  0
    2.6561   -1.6053   -0.8982 O   0  0  0  0  0
    3.7036   -0.5661   -2.6072 O   0  0  0  0  0
   -3.6133    1.7059    1.0391 O   0  0  0  0  0
   -2.9223    2.0242   -1.3526 O   0  0  0  0  0
   -2.7453    1.3655   -0.0728 S   0  0  0  0  0
  1  6  1  0  0  0
  2 10  1  0  0  0
  3 11  1  0  0  0
  4  7  1  0  0  0
  5  9  1  0  0  0
  6 13  1  0  0  0
  8 12  1  0  0  0
 10 24  1  0  0  0
 11 25  1  0  0  0
 13 27  1  0  0  0
 14 16  1  0  0  0
 14 24  1  0  0  0
 15 17  1  0  0  0
 15 24  1  0  0  0
 16 26  1  0  0  0
 17 26  1  0  0  0
 18  7  1  0  0  0
 19  8  1  0  0  0
 20  9  1  0  0  0
 21 22  1  0  0  0
 22 23  1  0  0  0
 23 26  1  0  0  0
 31 12  1  0  0  0
 31 25  1  0  0  0
  1  2  2  0  0  0
  3  6  2  0  0  0
  4  8  2  0  0  0
  5  7  2  0  0  0
  9 12  2  0  0  0
 10 11  2  0  0  0
 13 28  2  0  0  0
 31 29  2  0  0  0
 31 30  2  0  0  0
M  CHG  2  26   1  27  -1
M  END
> <rmsd>
0.58935225

$$$$
ZINC32962131


 31 32  0  0  0  0  0  0  0  0999 V2000
   -0.1067    2.5013   -1.5740 C   0  0  0  0  0
    0.8691    2.5243   -2.5705 C   0  0  0  0  0
    0.8581    0.4765   -0.6760 C   0  0  0  0  0
   -2.9184   -2.6391    0.5327 C   0  0  0  0  0
   -3.5255   -2.2345   -1.7705 C   0  0  0  0  0
    1.8337    0.4994   -1.6726 C   0  0  0  0  0
   -3.3036   -3.1223   -0.7178 C   0  0  0  0  0
   -2.7551   -1.2680    0.7306 C   0  0  0  0  0
   -3.3622   -0.8633   -1.5726 C   0  0  0  0  0
   -0.1121    1.4774   -0.6267 C   0  0  0  0  0
    1.8393    1.5233   -2.6198 C   0  0  0  0  0
   -2.9770   -0.3802   -0.3221 C   0  0  0  0  0
    2.8487   -0.5704   -1.7019 C   0  0  0  0  0
   -3.4772   -4.5885   -0.9298 C   0  0  0  0  0
   -2.3406   -0.7878    2.0836 C   0  0  0  0  0
   -3.6083    0.0576   -2.7234 C   0  0  0  0  0
    5.7372    1.3671   -3.0144 C   0  0  0  0  0
    5.7652    3.8704   -2.7746 C   0  0  0  0  0
    1.3560    1.5449   -6.2351 C   0  0  0  0  0
    1.8450   -0.9188   -6.3611 C   0  0  0  0  0
    3.7074    2.7255   -3.7266 C   0  0  0  0  0
    2.9701    0.4924   -4.5739 C   0  0  0  0  0
    4.8914    2.6153   -2.7582 C   0  0  0  0  0
    1.7176    0.2921   -5.4357 C   0  0  0  0  0
   -1.1116    1.4539    0.3927 N   0  0  0  0  0
    2.7976    1.5631   -3.6164 N   0  0  0  0  0
    2.6044   -1.6337   -2.3835 O   0  0  0  0  0
    3.9415   -0.4019   -1.0446 O   0  0  0  0  0
   -3.5974    1.7229    1.0630 O   0  0  0  0  0
   -2.9650    2.0179   -1.3479 O   0  0  0  0  0
   -2.7681    1.3594   -0.0708 S   0  0  0  0  0
  1 10  1  0  0  0
  2 11  1  0  0  0
  3  6  1  0  0  0
  4  7  1  0  0  0
  5  9  1  0  0  0
  6 13  1  0  0  0
  8 12  1  0  0  0
 10 25  1  0  0  0
 11 26  1  0  0  0
 13 27  1  0  0  0
 14  7  1  0  0  0
 15  8  1  0  0  0
 16  9  1  0  0  0
 17 23  1  0  0  0
 18 23  1  0  0  0
 19 24  1  0  0  0
 20 24  1  0  0  0
 21 23  1  0  0  0
 21 26  1  0  0  0
 22 24  1  0  0  0
 22 26  1  0  0  0
 31 12  1  0  0  0
 31 25  1  0  0  0
  1  2  2  0  0  0
  3 10  2  0  0  0
  4  8  2  0  0  0
  5  7  2  0  0  0
  6 11  2  0  0  0
  9 12  2  0  0  0
 13 28  2  0  0  0
 31 29  2  0  0  0
 31 30  2  0  0  0
M  CHG  1  27  -1
M  END
> <rmsd>
0.526623249

$$$$
ZINC32962131


 31 32  0  0  0  0  0  0  0  0999 V2000
   -0.0381    2.7671   -1.2898 C   0  0  0  0  0
    1.0213    2.8838   -2.1897 C   0  0  0  0  0
    0.9950    0.8062   -0.3280 C   0  0  0  0  0
   -2.6213   -2.6132    0.4843 C   0  0  0  0  0
   -3.0415   -2.2137   -1.8610 C   0  0  0  0  0
    2.0542    0.9229   -1.2280 C   0  0  0  0  0
   -2.8494   -3.1012   -0.8023 C   0  0  0  0  0
   -2.5853   -1.2375    0.7123 C   0  0  0  0  0
   -3.0054   -0.8380   -1.6331 C   0  0  0  0  0
   -0.0512    1.7283   -0.3589 C   0  0  0  0  0
    2.0674    1.9616   -2.1588 C   0  0  0  0  0
   -2.7773   -0.3500   -0.3465 C   0  0  0  0  0
    3.1484   -0.0648   -1.1737 C   0  0  0  0  0
   -2.8869   -4.5723   -1.0463 C   0  0  0  0  0
   -2.3373   -0.7521    2.1036 C   0  0  0  0  0
   -3.2150    0.0826   -2.7915 C   0  0  0  0  0
    5.9854    2.1138   -2.1863 C   0  0  0  0  0
    5.7943    4.6068   -1.9166 C   0  0  0  0  0
    1.9222    2.0133   -5.8030 C   0  0  0  0  0
    2.6127   -0.4026   -5.9104 C   0  0  0  0  0
    3.9303    3.3247   -3.0710 C   0  0  0  0  0
    3.4525    1.0576   -4.0093 C   0  0  0  0  0
    5.0240    3.2881   -1.9968 C   0  0  0  0  0
    2.3051    0.7774   -4.9874 C   0  0  0  0  0
   -1.1361    1.6088    0.5615 N   0  0  0  0  0
    3.1082    2.0938   -3.0602 N   0  0  0  0  0
    3.0527   -1.1309   -1.8873 O   0  0  0  0  0
    4.1587    0.1752   -0.4146 O   0  0  0  0  0
   -3.6869    1.6729    0.9978 O   0  0  0  0  0
   -2.8582    2.0606   -1.3394 O   0  0  0  0  0
   -2.7298    1.3955   -0.0569 S   0  0  0  0  0
  1 10  1  0  0  0
  2 11  1  0  0  0
  3  6  1  0  0  0
  4  7  1  0  0  0
  5  9  1  0  0  0
  6 13  1  0  0  0
  8 12  1  0  0  0
 10 25  1  0  0  0
 11 26  1  0  0  0
 13 27  1  0  0  0
 14  7  1  0  0  0
 15  8  1  0  0  0
 16  9  1  0  0  0
 17 23  1  0  0  0
 18 23  1  0  0  0
 19 24  1  0  0  0
 20 24  1  0  0  0
 21 23  1  0  0  0
 21 26  1  0  0  0
 22 24  1  0  0  0
 22 26  1  0  0  0
 31 12  1  0  0  0
 31 25  1  0  0  0
  1  2  2  0  0  0
  3 10  2  0  0  0
  4  8  2  0  0  0
  5  7  2  0  0  0
  6 11  2  0  0  0
  9 12  2  0  0  0
 13 28  2  0  0  0
 31 29  2  0  0  0
 31 30  2  0  0  0
M  CHG  1  27  -1
M  END
> <rmsd>
0.707630396

$$$$
ZINC32962137


 31 32  0  0  0  0  0  0  0  0999 V2000
   -3.2440   -2.5885    0.4337 C   0  0  0  0  0
   -2.4199   -2.2384   -1.8102 C   0  0  0  0  0
   -0.0380    2.7669   -1.2907 C   0  0  0  0  0
    1.0212    2.8835   -2.1908 C   0  0  0  0  0
   -3.2071   -1.2130    0.6620 C   0  0  0  0  0
   -2.3831   -0.8628   -1.5820 C   0  0  0  0  0
    0.9954    0.8066   -0.3284 C   0  0  0  0  0
    2.0545    0.9231   -1.2285 C   0  0  0  0  0
   -2.8503   -3.1013   -0.8023 C   0  0  0  0  0
   -0.0508    1.7284   -0.3595 C   0  0  0  0  0
    2.0675    1.9615   -2.1597 C   0  0  0  0  0
   -2.7766   -0.3502   -0.3459 C   0  0  0  0  0
    3.1489   -0.0645   -1.1741 C   0  0  0  0  0
   -1.4924   -5.1561   -1.3383 C   0  0  0  0  0
   -3.8622   -4.9576   -2.1750 C   0  0  0  0  0
    5.9854    2.1142   -2.1879 C   0  0  0  0  0
    5.7940    4.6073   -1.9191 C   0  0  0  0  0
    1.9217    2.0118   -5.8039 C   0  0  0  0  0
    2.6125   -0.4040   -5.9105 C   0  0  0  0  0
    3.9300    3.3245   -3.0727 C   0  0  0  0  0
    3.4524    1.0570   -4.0101 C   0  0  0  0  0
   -2.8876   -4.5720   -1.0460 C   0  0  0  0  0
    5.0239    3.2884   -1.9987 C   0  0  0  0  0
    2.3049    0.7763   -4.9879 C   0  0  0  0  0
   -1.1356    1.6091    0.5612 N   0  0  0  0  0
    3.1081    2.0935   -3.0614 N   0  0  0  0  0
    3.0532   -1.1308   -1.8873 O   0  0  0  0  0
    4.1593    0.1759   -0.4152 O   0  0  0  0  0
   -3.6864    1.6730    0.9979 O   0  0  0  0  0
   -2.8580    2.0600   -1.3396 O   0  0  0  0  0
   -2.7294    1.3954   -0.0569 S   0  0  0  0  0
  1  9  1  0  0  0
  2  6  1  0  0  0
  3 10  1  0  0  0
  4 11  1  0  0  0
  5 12  1  0  0  0
  7  8  1  0  0  0
  8 13  1  0  0  0
 10 25  1  0  0  0
 11 26  1  0  0  0
 13 27  1  0  0  0
 14 22  1  0  0  0
 15 22  1  0  0  0
 16 23  1  0  0  0
 17 23  1  0  0  0
 18 24  1  0  0  0
 19 24  1  0  0  0
 20 23  1  0  0  0
 20 26  1  0  0  0
 21 24  1  0  0  0
 21 26  1  0  0  0
 22  9  1  0  0  0
 31 12  1  0  0  0
 31 25  1  0  0  0
  1  5  2  0  0  0
  2  9  2  0  0  0
  3  4  2  0  0  0
  6 12  2  0  0  0
  7 10  2  0  0  0
  8 11  2  0  0  0
 13 28  2  0  0  0
 31 29  2  0  0  0
 31 30  2  0  0  0
M  CHG  1  27  -1
M  END
> <rmsd>
0.707438946

$$$$
ZINC32962137


 31 32  0  0  0  0  0  0  0  0999 V2000
   -3.5394   -2.5662    0.5398 C   0  0  0  0  0
   -2.9057   -2.3074   -1.7772 C   0  0  0  0  0
   -0.1066    2.5010   -1.5748 C   0  0  0  0  0
    0.8690    2.5238   -2.5715 C   0  0  0  0  0
   -3.3753   -1.1953    0.7380 C   0  0  0  0  0
   -2.7416   -0.9364   -1.5791 C   0  0  0  0  0
    0.8586    0.4767   -0.6763 C   0  0  0  0  0
    1.8341    0.4994   -1.6730 C   0  0  0  0  0
   -3.3045   -3.1223   -0.7177 C   0  0  0  0  0
   -0.1118    1.4774   -0.6272 C   0  0  0  0  0
    1.8393    1.5229   -2.6206 C   0  0  0  0  0
   -2.9763   -0.3804   -0.3215 C   0  0  0  0  0
    2.8492   -0.5703   -1.7021 C   0  0  0  0  0
   -2.1657   -5.2833   -1.3391 C   0  0  0  0  0
   -4.5812   -4.9089   -1.9555 C   0  0  0  0  0
    5.7373    1.3672   -3.0156 C   0  0  0  0  0
    5.7649    3.8705   -2.7767 C   0  0  0  0  0
    1.3556    1.5432   -6.2357 C   0  0  0  0  0
    1.8449   -0.9205   -6.3610 C   0  0  0  0  0
    3.7072    2.7250   -3.7280 C   0  0  0  0  0
    2.9701    0.4915   -4.5745 C   0  0  0  0  0
   -3.4779   -4.5882   -0.9293 C   0  0  0  0  0
    4.8913    2.6154   -2.7598 C   0  0  0  0  0
    1.7175    0.2907   -5.4360 C   0  0  0  0  0
   -1.1110    1.4541    0.3924 N   0  0  0  0  0
    2.7976    1.5626   -3.6173 N   0  0  0  0  0
    2.6050   -1.6339   -2.3832 O   0  0  0  0  0
    3.9421   -0.4014   -1.0450 O   0  0  0  0  0
   -3.5968    1.7230    1.0630 O   0  0  0  0  0
   -2.9648    2.0172   -1.3482 O   0  0  0  0  0
   -2.7676    1.3592   -0.0708 S   0  0  0  0  0
  1  9  1  0  0  0
  2  6  1  0  0  0
  3 10  1  0  0  0
  4 11  1  0  0  0
  5 12  1  0  0  0
  7  8  1  0  0  0
  8 13  1  0  0  0
 10 25  1  0  0  0
 11 26  1  0  0  0
 13 27  1  0  0  0
 14 22  1  0  0  0
 15 22  1  0  0  0
 16 23  1  0  0  0
 17 23  1  0  0  0
 18 24  1  0  0  0
 19 24  1  0  0  0
 20 23  1  0  0  0
 20 26  1  0  0  0
 21 24  1  0  0  0
 21 26  1  0  0  0
 22  9  1  0  0  0
 31 12  1  0  0  0
 31 25  1  0  0  0
  1  5  2  0  0  0
  2  9  2  0  0  0
  3  4  2  0  0  0
  6 12  2  0  0  0
  7 10  2  0  0  0
  8 11  2  0  0  0
 13 28  2  0  0  0
 31 29  2  0  0  0
 31 30  2  0  0  0
M  CHG  1  27  -1
M  END
> <rmsd>
0.526434779

$$$$
ZINC32962139


 31 32  0  0  0  0  0  0  0  0999 V2000
   -0.0467    2.7597   -1.3039 C   0  0  0  0  0
    1.0097    2.8729   -2.2076 C   0  0  0  0  0
    0.9937    0.8078   -0.3320 C   0  0  0  0  0
   -2.7212   -2.6322    0.4804 C   0  0  0  0  0
   -2.9028   -0.8272   -1.6390 C   0  0  0  0  0
    2.0501    0.9209   -1.2358 C   0  0  0  0  0
   -2.8483   -3.1020   -0.8268 C   0  0  0  0  0
   -2.6851   -1.2599    0.7279 C   0  0  0  0  0
   -2.9391   -2.1995   -1.8865 C   0  0  0  0  0
   -0.0547    1.7271   -0.3660 C   0  0  0  0  0
    2.0581    1.9534   -2.1735 C   0  0  0  0  0
   -2.7758   -0.3575   -0.3318 C   0  0  0  0  0
    3.1468   -0.0638   -1.1781 C   0  0  0  0  0
   -2.8850   -4.5755   -1.0674 C   0  0  0  0  0
   -2.5474   -0.7894    2.1391 C   0  0  0  0  0
   -3.0760   -2.6794   -3.2943 C   0  0  0  0  0
    5.9756    2.1147   -2.2134 C   0  0  0  0  0
    5.7794    4.6090   -1.9599 C   0  0  0  0  0
    1.9023    1.9804   -5.8176 C   0  0  0  0  0
    2.5982   -0.4345   -5.9108 C   0  0  0  0  0
    3.9151    3.3148   -3.1003 C   0  0  0  0  0
    3.4400    1.0403   -4.0220 C   0  0  0  0  0
    5.0120    3.2880   -2.0290 C   0  0  0  0  0
    2.2905    0.7509   -4.9948 C   0  0  0  0  0
   -1.1367    1.6112    0.5583 N   0  0  0  0  0
    3.0960    2.0820   -3.0788 N   0  0  0  0  0
    3.0516   -1.1348   -1.8843 O   0  0  0  0  0
    4.1588    0.1836   -0.4235 O   0  0  0  0  0
   -3.6863    1.6721    1.0016 O   0  0  0  0  0
   -2.8653    2.0462   -1.3405 O   0  0  0  0  0
   -2.7316    1.3900   -0.0540 S   0  0  0  0  0
  1 10  1  0  0  0
  2 11  1  0  0  0
  3  6  1  0  0  0
  4  7  1  0  0  0
  5  9  1  0  0  0
  6 13  1  0  0  0
  8 12  1  0  0  0
 10 25  1  0  0  0
 11 26  1  0  0  0
 13 27  1  0  0  0
 14  7  1  0  0  0
 15  8  1  0  0  0
 16  9  1  0  0  0
 17 23  1  0  0  0
 18 23  1  0  0  0
 19 24  1  0  0  0
 20 24  1  0  0  0
 21 23  1  0  0  0
 21 26  1  0  0  0
 22 24  1  0  0  0
 22 26  1  0  0  0
 31 12  1  0  0  0
 31 25  1  0  0  0
  1  2  2  0  0  0
  3 10  2  0  0  0
  4  8  2  0  0  0
  5 12  2  0  0  0
  6 11  2  0  0  0
  7  9  2  0  0  0
 13 28  2  0  0  0
 31 29  2  0  0  0
 31 30  2  0  0  0
M  CHG  1  27  -1
M  END
> <rmsd>
0.710343122

$$$$
ZINC32962139


 31 32  0  0  0  0  0  0  0  0999 V2000
   -0.1150    2.4918   -1.5859 C   0  0  0  0  0
    0.8580    2.5104   -2.5852 C   0  0  0  0  0
    0.8571    0.4754   -0.6769 C   0  0  0  0  0
   -3.0214   -2.6502    0.5403 C   0  0  0  0  0
   -3.2596   -0.8618   -1.5875 C   0  0  0  0  0
    1.8300    0.4940   -1.6763 C   0  0  0  0  0
   -3.3061   -3.1239   -0.7404 C   0  0  0  0  0
   -2.8559   -1.2822    0.7571 C   0  0  0  0  0
   -3.4252   -2.2298   -1.8043 C   0  0  0  0  0
   -0.1154    1.4743   -0.6317 C   0  0  0  0  0
    1.8305    1.5114   -2.6304 C   0  0  0  0  0
   -2.9749   -0.3881   -0.3068 C   0  0  0  0  0
    2.8475   -0.5736   -1.7011 C   0  0  0  0  0
   -3.4794   -4.5927   -0.9482 C   0  0  0  0  0
   -2.5509   -0.8074    2.1404 C   0  0  0  0  0
   -3.7299   -2.7140   -3.1839 C   0  0  0  0  0
    5.7278    1.3620   -3.0344 C   0  0  0  0  0
    5.7503    3.8669   -2.8117 C   0  0  0  0  0
    1.3375    1.5074   -6.2444 C   0  0  0  0  0
    1.8321   -0.9559   -6.3551 C   0  0  0  0  0
    3.6928    2.7106   -3.7503 C   0  0  0  0  0
    2.9586    0.4701   -4.5805 C   0  0  0  0  0
    4.8796    2.6099   -2.7844 C   0  0  0  0  0
    1.7043    0.2609   -5.4375 C   0  0  0  0  0
   -1.1120    1.4553    0.3905 N   0  0  0  0  0
    2.7861    1.5468   -3.6298 N   0  0  0  0  0
    2.6039   -1.6420   -2.3748 O   0  0  0  0  0
    3.9417   -0.3980   -1.0479 O   0  0  0  0  0
   -3.5966    1.7228    1.0657 O   0  0  0  0  0
   -2.9715    2.0030   -1.3489 O   0  0  0  0  0
   -2.7695    1.3536   -0.0678 S   0  0  0  0  0
  1 10  1  0  0  0
  2 11  1  0  0  0
  3  6  1  0  0  0
  4  7  1  0  0  0
  5  9  1  0  0  0
  6 13  1  0  0  0
  8 12  1  0  0  0
 10 25  1  0  0  0
 11 26  1  0  0  0
 13 27  1  0  0  0
 14  7  1  0  0  0
 15  8  1  0  0  0
 16  9  1  0  0  0
 17 23  1  0  0  0
 18 23  1  0  0  0
 19 24  1  0  0  0
 20 24  1  0  0  0
 21 23  1  0  0  0
 21 26  1  0  0  0
 22 24  1  0  0  0
 22 26  1  0  0  0
 31 12  1  0  0  0
 31 25  1  0  0  0
  1  2  2  0  0  0
  3 10  2  0  0  0
  4  8  2  0  0  0
  5 12  2  0  0  0
  6 11  2  0  0  0
  7  9  2  0  0  0
 13 28  2  0  0  0
 31 29  2  0  0  0
 31 30  2  0  0  0
M  CHG  1  27  -1
M  END
> <rmsd>
0.528541028

$$$$
ZINC35188436


 32 35  0  0  0  0  0  0  0  0999 V2000
    2.6962   -0.9770    2.4194 C   0  0  0  0  0
    1.6444   -1.7824    2.8558 C   0  0  0  0  0
    2.9003   -0.7754    1.0543 C   0  0  0  0  0
    1.0009   -2.1849    0.5621 C   0  0  0  0  0
    0.7967   -2.3864    1.9272 C   0  0  0  0  0
    2.0527   -1.3793    0.1258 C   0  0  0  0  0
   -4.3717   -1.9653   -0.8717 C   0  0  0  0  0
   -4.3314   -0.6146   -0.6238 C   0  0  0  0  0
   -2.7882   -1.7015    0.5020 C   0  0  0  0  0
   -5.3558   -2.4826   -1.7815 C   0  0  0  0  0
   -6.0244   -0.0788   -1.9632 C   0  0  0  0  0
   -0.3141   -3.2374    2.3883 C   0  0  0  0  0
   -2.1398    3.0049    0.3423 C   0  0  0  0  0
   -1.8507    1.5621   -0.0244 C   0  0  0  0  0
   -3.6619    2.9734    0.4312 C   0  0  0  0  0
   -2.8597    0.8133    0.8390 C   0  0  0  0  0
   -4.2996    4.0695    1.2642 C   0  0  0  0  0
   -3.4158   -2.6434   -0.1747 N   0  0  0  0  0
   -5.1130    0.3668   -1.1260 N   0  0  0  0  0
   -1.5469   -2.9640    2.1085 N   0  0  0  0  0
   -3.3076   -0.4527    0.2625 N   0  0  0  0  0
   -6.1551   -1.4494   -2.2904 N   0  0  0  0  0
   -6.9162    0.7591   -2.5805 N   0  0  0  0  0
   -1.7456   -1.8325    1.3567 N   0  0  0  0  0
    2.2613   -1.1736   -1.2639 N   0  0  0  0  0
    3.2133   -0.4452   -1.6344 O   0  0  0  0  0
   -5.4677   -3.6694   -2.0617 O   0  0  0  0  0
    1.4879   -1.7260   -2.0830 O   0  0  0  0  0
   -3.9930    1.6899    1.0054 O   0  0  0  0  0
   -1.5573    3.3028    1.6071 O   0  0  0  0  0
   -0.5231    1.1719    0.2619 O   0  0  0  0  0
   -5.7082    3.9059    1.2365 O   0  0  0  0  0
  1  2  1  0  0  0
  3  6  1  0  0  0
  4  5  1  0  0  0
  5 12  1  0  0  0
  6 25  1  0  0  0
  7 10  1  0  0  0
  7 18  1  0  0  0
  8 19  1  0  0  0
  8 21  1  0  0  0
  9 21  1  0  0  0
  9 24  1  0  0  0
 10 22  1  0  0  0
 11 22  1  0  0  0
 11 23  1  0  0  0
 13 14  1  0  0  0
 13 15  1  0  0  0
 13 30  1  0  0  0
 14 16  1  0  0  0
 14 31  1  0  0  0
 15 17  1  0  0  0
 15 29  1  0  0  0
 16 21  1  0  0  0
 16 29  1  0  0  0
 17 32  1  0  0  0
 24 20  1  0  0  0
 25 26  1  0  0  0
  1  3  2  0  0  0
  2  5  2  0  0  0
  4  6  2  0  0  0
  7  8  2  0  0  0
  9 18  2  0  0  0
 10 27  2  0  0  0
 11 19  2  0  0  0
 12 20  2  0  0  0
 25 28  2  0  0  0
M  CHG  2  25   1  26  -1
M  END
> <rmsd>
0.351737857

$$$$
ZINC01197027


 30 32  0  0  0  0  0  0  0  0999 V2000
   -7.6194   -4.1806    3.1445 C   0  0  0  0  0
   -7.0229   -5.0491    2.2305 C   0  0  0  0  0
   -6.8677   -3.1641    3.7337 C   0  0  0  0  0
    1.6608    2.5868   -1.4529 C   0  0  0  0  0
    0.5179    2.6300   -0.6544 C   0  0  0  0  0
    2.2877    1.3671   -1.7081 C   0  0  0  0  0
   -5.6745   -4.9013    1.9058 C   0  0  0  0  0
   -5.5192   -3.0163    3.4090 C   0  0  0  0  0
   -3.1222   -3.1557   -0.5728 C   0  0  0  0  0
   -2.9016   -0.9408   -1.5124 C   0  0  0  0  0
    0.6289    0.2339   -0.3658 C   0  0  0  0  0
   -3.0283   -2.3192   -1.6850 C   0  0  0  0  0
   -2.9629   -1.2355    0.8848 C   0  0  0  0  0
    0.0021    1.4536   -0.1108 C   0  0  0  0  0
    1.7717    0.1906   -1.1644 C   0  0  0  0  0
   -4.9226   -3.8848    2.4951 C   0  0  0  0  0
   -3.0896   -2.6139    0.7122 C   0  0  0  0  0
   -2.8689   -0.3990   -0.2274 C   0  0  0  0  0
   -3.0655   -2.8984   -3.0586 C   0  0  0  0  0
   -2.9296   -0.6540    2.2630 C   0  0  0  0  0
   -1.1761    1.4986    0.7128 N   0  0  0  0  0
    2.4097   -1.0506   -1.4253 N   0  0  0  0  0
    3.4360   -1.0671   -2.1472 O   0  0  0  0  0
    1.9302   -2.0976   -0.9267 O   0  0  0  0  0
   -2.6077   -3.0584    3.2434 O   0  0  0  0  0
   -2.7170   -4.9867    1.6244 O   0  0  0  0  0
   -3.7347    1.7793    0.8821 O   0  0  0  0  0
   -2.6604    1.9309   -1.3811 O   0  0  0  0  0
   -3.2104   -3.6969    2.0824 S   0  0  0  0  0
   -2.7097    1.3358   -0.0528 S   0  0  0  0  0
  1  2  1  0  0  0
  3  8  1  0  0  0
  4  6  1  0  0  0
  5 14  1  0  0  0
  7 16  1  0  0  0
  9 12  1  0  0  0
 10 18  1  0  0  0
 11 15  1  0  0  0
 13 17  1  0  0  0
 14 21  1  0  0  0
 15 22  1  0  0  0
 19 12  1  0  0  0
 20 13  1  0  0  0
 22 23  1  0  0  0
 29 16  1  0  0  0
 29 17  1  0  0  0
 30 18  1  0  0  0
 30 21  1  0  0  0
  1  3  2  0  0  0
  2  7  2  0  0  0
  4  5  2  0  0  0
  6 15  2  0  0  0
  8 16  2  0  0  0
  9 17  2  0  0  0
 10 12  2  0  0  0
 11 14  2  0  0  0
 13 18  2  0  0  0
 22 24  2  0  0  0
 29 25  2  0  0  0
 29 26  2  0  0  0
 30 27  2  0  0  0
 30 28  2  0  0  0
M  CHG  2  22   1  23  -1
M  END
> <rmsd>
0.562920272

$$$$
ZINC32961603


 31 33  0  0  0  0  0  0  0  0999 V2000
   -3.2446   -2.5888    0.4329 C   0  0  0  0  0
   -2.4209   -2.2382   -1.8111 C   0  0  0  0  0
    1.0212    2.8836   -2.1903 C   0  0  0  0  0
   -0.0382    2.7666   -1.2905 C   0  0  0  0  0
   -3.2075   -1.2134    0.6616 C   0  0  0  0  0
   -2.3837   -0.8627   -1.5825 C   0  0  0  0  0
    0.9955    0.8062   -0.3284 C   0  0  0  0  0
    2.0548    0.9232   -1.2284 C   0  0  0  0  0
   -2.8513   -3.1013   -0.8034 C   0  0  0  0  0
    2.0676    1.9619   -2.1592 C   0  0  0  0  0
   -0.0510    1.7279   -0.3596 C   0  0  0  0  0
   -2.7771   -0.3503   -0.3462 C   0  0  0  0  0
    3.1489   -0.0647   -1.1742 C   0  0  0  0  0
    6.0222    3.2376   -5.7822 C   0  0  0  0  0
    4.2742    2.9168   -2.6652 C   0  0  0  0  0
    2.8446    2.0446   -4.5129 C   0  0  0  0  0
    5.5152    2.5167   -3.4597 C   0  0  0  0  0
    4.1070    1.6613   -5.2843 C   0  0  0  0  0
   -2.8887   -4.5719   -1.0474 C   0  0  0  0  0
    5.7682    3.5783   -9.4285 C   0  0  0  0  0
    6.3642    3.8306   -8.0600 C   0  0  0  0  0
    3.1210    2.0968   -3.0707 N   0  0  0  0  0
    5.2323    2.5093   -4.8912 N   0  0  0  0  0
   -1.1357    1.6084    0.5613 N   0  0  0  0  0
    3.0528   -1.1308   -1.8875 O   0  0  0  0  0
    4.1595    0.1754   -0.4153 O   0  0  0  0  0
    6.9882    3.9226   -5.4511 O   0  0  0  0  0
   -3.6864    1.6726    0.9982 O   0  0  0  0  0
   -2.8582    2.0601   -1.3393 O   0  0  0  0  0
    5.6055    3.1113   -7.0809 O   0  0  0  0  0
   -2.7295    1.3951   -0.0569 S   0  0  0  0  0
  1  9  1  0  0  0
  2  6  1  0  0  0
  3 10  1  0  0  0
  4 11  1  0  0  0
  5 12  1  0  0  0
  7  8  1  0  0  0
  8 13  1  0  0  0
 10 22  1  0  0  0
 11 24  1  0  0  0
 13 25  1  0  0  0
 14 23  1  0  0  0
 14 30  1  0  0  0
 15 17  1  0  0  0
 15 22  1  0  0  0
 16 18  1  0  0  0
 16 22  1  0  0  0
 17 23  1  0  0  0
 18 23  1  0  0  0
 19  9  1  0  0  0
 20 21  1  0  0  0
 21 30  1  0  0  0
 31 12  1  0  0  0
 31 24  1  0  0  0
  1  5  2  0  0  0
  2  9  2  0  0  0
  3  4  2  0  0  0
  6 12  2  0  0  0
  7 11  2  0  0  0
  8 10  2  0  0  0
 13 26  2  0  0  0
 14 27  2  0  0  0
 31 28  2  0  0  0
 31 29  2  0  0  0
M  CHG  1  25  -1
M  END
> <rmsd>
0.707250297

$$$$
ZINC32961603


 31 33  0  0  0  0  0  0  0  0999 V2000
   -3.5402   -2.5665    0.5390 C   0  0  0  0  0
   -2.9067   -2.3071   -1.7780 C   0  0  0  0  0
    0.8691    2.5240   -2.5709 C   0  0  0  0  0
   -0.1068    2.5008   -1.5745 C   0  0  0  0  0
   -3.3757   -1.1957    0.7375 C   0  0  0  0  0
   -2.7422   -0.9363   -1.5795 C   0  0  0  0  0
    0.8586    0.4763   -0.6763 C   0  0  0  0  0
    1.8344    0.4996   -1.6728 C   0  0  0  0  0
   -3.3055   -3.1223   -0.7187 C   0  0  0  0  0
    1.8396    1.5234   -2.6201 C   0  0  0  0  0
   -0.1120    1.4769   -0.6272 C   0  0  0  0  0
   -2.9768   -0.3805   -0.3218 C   0  0  0  0  0
    2.8493   -0.5706   -1.7021 C   0  0  0  0  0
    5.5222    2.4434   -6.6181 C   0  0  0  0  0
    4.0558    2.2963   -3.3467 C   0  0  0  0  0
    2.3957    1.5181   -5.0369 C   0  0  0  0  0
    5.1819    1.7910   -4.2454 C   0  0  0  0  0
    3.5466    1.0281   -5.9150 C   0  0  0  0  0
   -3.4791   -4.5881   -0.9307 C   0  0  0  0  0
    4.9532    2.7616  -10.2306 C   0  0  0  0  0
    5.6930    2.9818   -8.9284 C   0  0  0  0  0
    2.8098    1.5648   -3.6278 N   0  0  0  0  0
    4.7658    1.7896   -5.6440 N   0  0  0  0  0
   -1.1111    1.4534    0.3925 N   0  0  0  0  0
    2.6045   -1.6339   -2.3834 O   0  0  0  0  0
    3.9423   -0.4019   -1.0451 O   0  0  0  0  0
    6.5650    3.0542   -6.3910 O   0  0  0  0  0
   -3.5968    1.7227    1.0633 O   0  0  0  0  0
   -2.9649    2.0174   -1.3478 O   0  0  0  0  0
    4.9766    2.3355   -7.8698 O   0  0  0  0  0
   -2.7677    1.3589   -0.0708 S   0  0  0  0  0
  1  9  1  0  0  0
  2  6  1  0  0  0
  3 10  1  0  0  0
  4 11  1  0  0  0
  5 12  1  0  0  0
  7  8  1  0  0  0
  8 13  1  0  0  0
 10 22  1  0  0  0
 11 24  1  0  0  0
 13 25  1  0  0  0
 14 23  1  0  0  0
 14 30  1  0  0  0
 15 17  1  0  0  0
 15 22  1  0  0  0
 16 18  1  0  0  0
 16 22  1  0  0  0
 17 23  1  0  0  0
 18 23  1  0  0  0
 19  9  1  0  0  0
 20 21  1  0  0  0
 21 30  1  0  0  0
 31 12  1  0  0  0
 31 24  1  0  0  0
  1  5  2  0  0  0
  2  9  2  0  0  0
  3  4  2  0  0  0
  6 12  2  0  0  0
  7 11  2  0  0  0
  8 10  2  0  0  0
 13 26  2  0  0  0
 14 27  2  0  0  0
 31 28  2  0  0  0
 31 29  2  0  0  0
M  CHG  1  25  -1
M  END
> <rmsd>
0.526259363

$$$$
ZINC64843360


 31 32  0  0  0  0  0  0  0  0999 V2000
   -3.2794   -2.5849    0.4520 C   0  0  0  0  0
   -2.4334   -2.2550   -1.7869 C   0  0  0  0  0
   -3.2324   -1.2084    0.6725 C   0  0  0  0  0
   -2.3865   -0.8785   -1.5664 C   0  0  0  0  0
    1.0042    0.7847   -0.3097 C   0  0  0  0  0
    0.0111    2.7191   -1.2733 C   0  0  0  0  0
    2.0565    0.9141   -1.2093 C   0  0  0  0  0
   -2.8798   -3.1082   -0.7778 C   0  0  0  0  0
   -0.0418    1.7002   -0.3357 C   0  0  0  0  0
   -2.7860   -0.3551   -0.3367 C   0  0  0  0  0
    2.0155    1.9679   -2.1079 C   0  0  0  0  0
    3.1635   -0.0571   -1.1797 C   0  0  0  0  0
   -1.5355   -5.1780   -1.2903 C   0  0  0  0  0
   -3.8962   -4.9638   -2.1482 C   0  0  0  0  0
    5.9334    2.1217   -2.1234 C   0  0  0  0  0
    5.7406    4.6140   -1.8477 C   0  0  0  0  0
    1.8810    2.0292   -5.7523 C   0  0  0  0  0
    2.5728   -0.3861   -5.8641 C   0  0  0  0  0
    3.8805    3.3341   -3.0109 C   0  0  0  0  0
    3.4063    1.0693   -3.9568 C   0  0  0  0  0
   -2.9279   -4.5800   -1.0132 C   0  0  0  0  0
    4.9710    3.2951   -1.9336 C   0  0  0  0  0
    2.2620    0.7913   -4.9390 C   0  0  0  0  0
    1.0163    2.8770   -2.1632 N   0  0  0  0  0
   -1.1342    1.5939    0.5733 N   0  0  0  0  0
    3.0588    2.1029   -3.0059 N   0  0  0  0  0
    3.0765   -1.1166   -1.9059 O   0  0  0  0  0
    4.1803    0.1863   -0.4286 O   0  0  0  0  0
   -3.6905    1.6838    0.9863 O   0  0  0  0  0
   -2.8363    2.0497   -1.3452 O   0  0  0  0  0
   -2.7259    1.3916   -0.0575 S   0  0  0  0  0
  1  8  1  0  0  0
  2  4  1  0  0  0
  3 10  1  0  0  0
  5  9  1  0  0  0
  6 24  1  0  0  0
  7 11  1  0  0  0
  7 12  1  0  0  0
  9 25  1  0  0  0
 11 26  1  0  0  0
 12 27  1  0  0  0
 13 21  1  0  0  0
 14 21  1  0  0  0
 15 22  1  0  0  0
 16 22  1  0  0  0
 17 23  1  0  0  0
 18 23  1  0  0  0
 19 22  1  0  0  0
 19 26  1  0  0  0
 20 23  1  0  0  0
 20 26  1  0  0  0
 21  8  1  0  0  0
 31 10  1  0  0  0
 31 25  1  0  0  0
  1  3  2  0  0  0
  2  8  2  0  0  0
  4 10  2  0  0  0
  5  7  2  0  0  0
  6  9  2  0  0  0
 11 24  2  0  0  0
 12 28  2  0  0  0
 31 29  2  0  0  0
 31 30  2  0  0  0
M  CHG  1  27  -1
M  END
> <rmsd>
0.689506769

$$$$
ZINC64843360


 31 32  0  0  0  0  0  0  0  0999 V2000
   -3.5701   -2.5604    0.5581 C   0  0  0  0  0
   -2.9160   -2.3214   -1.7554 C   0  0  0  0  0
   -3.3973   -1.1895    0.7486 C   0  0  0  0  0
   -2.7434   -0.9504   -1.5649 C   0  0  0  0  0
    0.8680    0.4570   -0.6593 C   0  0  0  0  0
   -0.0605    2.4524   -1.5608 C   0  0  0  0  0
    1.8377    0.4944   -1.6552 C   0  0  0  0  0
   -3.3294   -3.1264   -0.6939 C   0  0  0  0  0
   -0.1027    1.4509   -0.6042 C   0  0  0  0  0
   -2.9840   -0.3844   -0.3129 C   0  0  0  0  0
    1.7929    1.5386   -2.5648 C   0  0  0  0  0
    2.8649   -0.5597   -1.7113 C   0  0  0  0  0
   -2.2016   -5.2999   -1.2921 C   0  0  0  0  0
   -4.6093   -4.9117   -1.9302 C   0  0  0  0  0
    5.6922    1.3866   -2.9476 C   0  0  0  0  0
    5.7175    3.8891   -2.6999 C   0  0  0  0  0
    1.3209    1.5712   -6.1814 C   0  0  0  0  0
    1.8122   -0.8917   -6.3137 C   0  0  0  0  0
    3.6637    2.7457   -3.6618 C   0  0  0  0  0
    2.9306    0.5147   -4.5187 C   0  0  0  0  0
   -3.5119   -4.5924   -0.8973 C   0  0  0  0  0
    4.8446    2.6334   -2.6901 C   0  0  0  0  0
    1.6809    0.3162   -5.3850 C   0  0  0  0  0
    0.8656    2.5221   -2.5432 N   0  0  0  0  0
   -1.1096    1.4397    0.4042 N   0  0  0  0  0
    2.7543    1.5823   -3.5583 N   0  0  0  0  0
    2.6291   -1.6169   -2.4071 O   0  0  0  0  0
    3.9636   -0.3882   -1.0626 O   0  0  0  0  0
   -3.6011    1.7328    1.0517 O   0  0  0  0  0
   -2.9448    2.0061   -1.3554 O   0  0  0  0  0
   -2.7644    1.3552   -0.0720 S   0  0  0  0  0
  1  8  1  0  0  0
  2  4  1  0  0  0
  3 10  1  0  0  0
  5  9  1  0  0  0
  6 24  1  0  0  0
  7 11  1  0  0  0
  7 12  1  0  0  0
  9 25  1  0  0  0
 11 26  1  0  0  0
 12 27  1  0  0  0
 13 21  1  0  0  0
 14 21  1  0  0  0
 15 22  1  0  0  0
 16 22  1  0  0  0
 17 23  1  0  0  0
 18 23  1  0  0  0
 19 22  1  0  0  0
 19 26  1  0  0  0
 20 23  1  0  0  0
 20 26  1  0  0  0
 21  8  1  0  0  0
 31 10  1  0  0  0
 31 25  1  0  0  0
  1  3  2  0  0  0
  2  8  2  0  0  0
  4 10  2  0  0  0
  5  7  2  0  0  0
  6  9  2  0  0  0
 11 24  2  0  0  0
 12 28  2  0  0  0
 31 29  2  0  0  0
 31 30  2  0  0  0
M  CHG  1  27  -1
M  END
> <rmsd>
0.510537863

$$$$
ZINC35479642


 31 32  0  0  0  0  0  0  0  0999 V2000
    1.0030    0.7873   -0.3140 C   0  0  0  0  0
   -2.7563   -2.6318    0.5036 C   0  0  0  0  0
   -2.9047   -0.8385   -1.6281 C   0  0  0  0  0
    0.0025    2.7129   -1.2875 C   0  0  0  0  0
    2.0524    0.9131   -1.2175 C   0  0  0  0  0
   -2.8764   -3.1085   -0.8017 C   0  0  0  0  0
   -2.7105   -1.2584    0.7432 C   0  0  0  0  0
   -2.9505   -2.2118   -1.8676 C   0  0  0  0  0
   -0.0453    1.7001   -0.3431 C   0  0  0  0  0
   -2.7846   -0.3617   -0.3227 C   0  0  0  0  0
    2.0063    1.9609   -2.1229 C   0  0  0  0  0
    3.1617   -0.0553   -1.1847 C   0  0  0  0  0
   -2.9237   -4.5832   -1.0337 C   0  0  0  0  0
   -2.5807   -0.7804    2.1527 C   0  0  0  0  0
   -3.0797   -2.6992   -3.2735 C   0  0  0  0  0
    5.9238    2.1238   -2.1505 C   0  0  0  0  0
    5.7259    4.6174   -1.8906 C   0  0  0  0  0
    1.8614    1.9979   -5.7672 C   0  0  0  0  0
    2.5586   -0.4164   -5.8650 C   0  0  0  0  0
    3.8655    3.3255   -3.0401 C   0  0  0  0  0
    3.3941    1.0534   -3.9697 C   0  0  0  0  0
    4.9592    3.2962   -1.9657 C   0  0  0  0  0
    2.2476    0.7663   -4.9469 C   0  0  0  0  0
    1.0049    2.8673   -2.1813 N   0  0  0  0  0
   -1.1349    1.5972    0.5697 N   0  0  0  0  0
    3.0468    2.0924   -3.0247 N   0  0  0  0  0
    3.0752   -1.1197   -1.9036 O   0  0  0  0  0
    4.1801    0.1955   -0.4381 O   0  0  0  0  0
   -3.6902    1.6839    0.9894 O   0  0  0  0  0
   -2.8434    2.0364   -1.3469 O   0  0  0  0  0
   -2.7278    1.3870   -0.0553 S   0  0  0  0  0
  1  9  1  0  0  0
  2  6  1  0  0  0
  3  8  1  0  0  0
  4 24  1  0  0  0
  5 11  1  0  0  0
  5 12  1  0  0  0
  7 10  1  0  0  0
  9 25  1  0  0  0
 11 26  1  0  0  0
 12 27  1  0  0  0
 13  6  1  0  0  0
 14  7  1  0  0  0
 15  8  1  0  0  0
 16 22  1  0  0  0
 17 22  1  0  0  0
 18 23  1  0  0  0
 19 23  1  0  0  0
 20 22  1  0  0  0
 20 26  1  0  0  0
 21 23  1  0  0  0
 21 26  1  0  0  0
 31 10  1  0  0  0
 31 25  1  0  0  0
  1  5  2  0  0  0
  2  7  2  0  0  0
  3 10  2  0  0  0
  4  9  2  0  0  0
  6  8  2  0  0  0
 11 24  2  0  0  0
 12 28  2  0  0  0
 31 29  2  0  0  0
 31 30  2  0  0  0
M  CHG  1  27  -1
M  END
> <rmsd>
0.692531824

$$$$
ZINC35479642


 31 32  0  0  0  0  0  0  0  0999 V2000
    0.8670    0.4570   -0.6607 C   0  0  0  0  0
   -3.0516   -2.6472    0.5637 C   0  0  0  0  0
   -3.2600   -0.8719   -1.5781 C   0  0  0  0  0
   -0.0687    2.4441   -1.5730 C   0  0  0  0  0
    1.8339    0.4900   -1.6593 C   0  0  0  0  0
   -3.3296   -3.1277   -0.7160 C   0  0  0  0  0
   -2.8779   -1.2791    0.7725 C   0  0  0  0  0
   -3.4337   -2.2400   -1.7869 C   0  0  0  0  0
   -0.1060    1.4489   -0.6096 C   0  0  0  0  0
   -2.9820   -0.3913   -0.2984 C   0  0  0  0  0
    1.7843    1.5279   -2.5758 C   0  0  0  0  0
    2.8635   -0.5620   -1.7112 C   0  0  0  0  0
   -3.5118   -4.5966   -0.9153 C   0  0  0  0  0
   -2.5805   -0.7970    2.1549 C   0  0  0  0  0
   -3.7309   -2.7315   -3.1656 C   0  0  0  0  0
    5.6829    1.3827   -2.9680 C   0  0  0  0  0
    5.7028    3.8869   -2.7371 C   0  0  0  0  0
    1.3026    1.5352   -6.1912 C   0  0  0  0  0
    1.7995   -0.9273   -6.3084 C   0  0  0  0  0
    3.6492    2.7321   -3.6859 C   0  0  0  0  0
    2.9192    0.4937   -4.5258 C   0  0  0  0  0
    4.8330    2.6292   -2.7166 C   0  0  0  0  0
    1.6677    0.2864   -5.3874 C   0  0  0  0  0
    0.8546    2.5093   -2.5583 N   0  0  0  0  0
   -1.1101    1.4420    0.4015 N   0  0  0  0  0
    2.7429    1.5673   -3.5721 N   0  0  0  0  0
    2.6285   -1.6244   -2.3992 O   0  0  0  0  0
    3.9635   -0.3835   -1.0665 O   0  0  0  0  0
   -3.6007    1.7336    1.0537 O   0  0  0  0  0
   -2.9514    1.9923   -1.3569 O   0  0  0  0  0
   -2.7659    1.3504   -0.0697 S   0  0  0  0  0
  1  9  1  0  0  0
  2  6  1  0  0  0
  3  8  1  0  0  0
  4 24  1  0  0  0
  5 11  1  0  0  0
  5 12  1  0  0  0
  7 10  1  0  0  0
  9 25  1  0  0  0
 11 26  1  0  0  0
 12 27  1  0  0  0
 13  6  1  0  0  0
 14  7  1  0  0  0
 15  8  1  0  0  0
 16 22  1  0  0  0
 17 22  1  0  0  0
 18 23  1  0  0  0
 19 23  1  0  0  0
 20 22  1  0  0  0
 20 26  1  0  0  0
 21 23  1  0  0  0
 21 26  1  0  0  0
 31 10  1  0  0  0
 31 25  1  0  0  0
  1  5  2  0  0  0
  2  7  2  0  0  0
  3 10  2  0  0  0
  4  9  2  0  0  0
  6  8  2  0  0  0
 11 24  2  0  0  0
 12 28  2  0  0  0
 31 29  2  0  0  0
 31 30  2  0  0  0
M  CHG  1  27  -1
M  END
> <rmsd>
0.512752771

$$$$
ZINC35479640


 31 32  0  0  0  0  0  0  0  0999 V2000
    0.8679    0.4573   -0.6601 C   0  0  0  0  0
   -2.9486   -2.6375    0.5571 C   0  0  0  0  0
   -3.5347   -2.2444   -1.7534 C   0  0  0  0  0
   -0.0605    2.4527   -1.5616 C   0  0  0  0  0
    1.8376    0.4946   -1.6559 C   0  0  0  0  0
   -3.3276   -3.1266   -0.6929 C   0  0  0  0  0
   -2.7769   -1.2662    0.7469 C   0  0  0  0  0
   -3.3630   -0.8732   -1.5638 C   0  0  0  0  0
   -0.1027    1.4511   -0.6050 C   0  0  0  0  0
   -2.9841   -0.3841   -0.3136 C   0  0  0  0  0
    1.7929    1.5387   -2.5656 C   0  0  0  0  0
    2.8648   -0.5596   -1.7121 C   0  0  0  0  0
   -3.5102   -4.5929   -0.8962 C   0  0  0  0  0
   -2.3694   -0.7797    2.0998 C   0  0  0  0  0
   -3.5934    0.0416   -2.7228 C   0  0  0  0  0
    5.6921    1.3866   -2.9485 C   0  0  0  0  0
    5.7175    3.8891   -2.7009 C   0  0  0  0  0
    1.3208    1.5713   -6.1822 C   0  0  0  0  0
    1.8119   -0.8916   -6.3144 C   0  0  0  0  0
    3.6636    2.7457   -3.6627 C   0  0  0  0  0
    2.9305    0.5147   -4.5195 C   0  0  0  0  0
    4.8446    2.6334   -2.6910 C   0  0  0  0  0
    1.6807    0.3163   -5.3858 C   0  0  0  0  0
    0.8655    2.5223   -2.5440 N   0  0  0  0  0
   -1.1096    1.4400    0.4035 N   0  0  0  0  0
    2.7542    1.5824   -3.5591 N   0  0  0  0  0
    2.6289   -1.6167   -2.4078 O   0  0  0  0  0
    3.9635   -0.3880   -1.0634 O   0  0  0  0  0
   -3.6011    1.7332    1.0511 O   0  0  0  0  0
   -2.9449    2.0065   -1.3561 O   0  0  0  0  0
   -2.7644    1.3555   -0.0727 S   0  0  0  0  0
  1  9  1  0  0  0
  2  6  1  0  0  0
  3  8  1  0  0  0
  4 24  1  0  0  0
  5 11  1  0  0  0
  5 12  1  0  0  0
  7 10  1  0  0  0
  9 25  1  0  0  0
 11 26  1  0  0  0
 12 27  1  0  0  0
 13  6  1  0  0  0
 14  7  1  0  0  0
 15  8  1  0  0  0
 16 22  1  0  0  0
 17 22  1  0  0  0
 18 23  1  0  0  0
 19 23  1  0  0  0
 20 22  1  0  0  0
 20 26  1  0  0  0
 21 23  1  0  0  0
 21 26  1  0  0  0
 31 10  1  0  0  0
 31 25  1  0  0  0
  1  5  2  0  0  0
  2  7  2  0  0  0
  3  6  2  0  0  0
  4  9  2  0  0  0
  8 10  2  0  0  0
 11 24  2  0  0  0
 12 28  2  0  0  0
 31 29  2  0  0  0
 31 30  2  0  0  0
M  CHG  1  27  -1
M  END
> <rmsd>
0.510819316

$$$$
ZINC35479640


 31 32  0  0  0  0  0  0  0  0999 V2000
    1.0042    0.7850   -0.3104 C   0  0  0  0  0
   -2.6564   -2.6142    0.5087 C   0  0  0  0  0
   -3.0537   -2.2256   -1.8425 C   0  0  0  0  0
    0.0111    2.7193   -1.2740 C   0  0  0  0  0
    2.0565    0.9143   -1.2101 C   0  0  0  0  0
   -2.8781   -3.1083   -0.7767 C   0  0  0  0  0
   -2.6104   -1.2374    0.7285 C   0  0  0  0  0
   -3.0077   -0.8489   -1.6228 C   0  0  0  0  0
   -0.0418    1.7005   -0.3364 C   0  0  0  0  0
   -2.7860   -0.3548   -0.3373 C   0  0  0  0  0
    2.0155    1.9681   -2.1086 C   0  0  0  0  0
    3.1634   -0.0570   -1.1805 C   0  0  0  0  0
   -2.9263   -4.5804   -1.0119 C   0  0  0  0  0
   -2.3698   -0.7455    2.1188 C   0  0  0  0  0
   -3.1998    0.0662   -2.7886 C   0  0  0  0  0
    5.9334    2.1218   -2.1242 C   0  0  0  0  0
    5.7406    4.6141   -1.8485 C   0  0  0  0  0
    1.8810    2.0294   -5.7531 C   0  0  0  0  0
    2.5726   -0.3859   -5.8648 C   0  0  0  0  0
    3.8805    3.3343   -3.0117 C   0  0  0  0  0
    3.4063    1.0695   -3.9576 C   0  0  0  0  0
    4.9711    3.2953   -1.9344 C   0  0  0  0  0
    2.2619    0.7915   -4.9398 C   0  0  0  0  0
    1.0164    2.8772   -2.1640 N   0  0  0  0  0
   -1.1342    1.5942    0.5726 N   0  0  0  0  0
    3.0588    2.1031   -3.0067 N   0  0  0  0  0
    3.0764   -1.1164   -1.9066 O   0  0  0  0  0
    4.1803    0.1864   -0.4294 O   0  0  0  0  0
   -3.6904    1.6842    0.9857 O   0  0  0  0  0
   -2.8363    2.0501   -1.3459 O   0  0  0  0  0
   -2.7259    1.3919   -0.0582 S   0  0  0  0  0
  1  9  1  0  0  0
  2  6  1  0  0  0
  3  8  1  0  0  0
  4 24  1  0  0  0
  5 11  1  0  0  0
  5 12  1  0  0  0
  7 10  1  0  0  0
  9 25  1  0  0  0
 11 26  1  0  0  0
 12 27  1  0  0  0
 13  6  1  0  0  0
 14  7  1  0  0  0
 15  8  1  0  0  0
 16 22  1  0  0  0
 17 22  1  0  0  0
 18 23  1  0  0  0
 19 23  1  0  0  0
 20 22  1  0  0  0
 20 26  1  0  0  0
 21 23  1  0  0  0
 21 26  1  0  0  0
 31 10  1  0  0  0
 31 25  1  0  0  0
  1  5  2  0  0  0
  2  7  2  0  0  0
  3  6  2  0  0  0
  4  9  2  0  0  0
  8 10  2  0  0  0
 11 24  2  0  0  0
 12 28  2  0  0  0
 31 29  2  0  0  0
 31 30  2  0  0  0
M  CHG  1  27  -1
M  END
> <rmsd>
0.689812303

$$$$
ZINC16925227


 30 32  0  0  0  0  0  0  0  0999 V2000
   -3.3337   -1.0957    0.5285 C   0  0  0  0  0
   -4.1302   -1.5537   -1.7059 C   0  0  0  0  0
   -3.5122   -2.4370    0.8671 C   0  0  0  0  0
   -4.3087   -2.8950   -1.3674 C   0  0  0  0  0
    2.2265   -1.5081    0.6093 C   0  0  0  0  0
    0.3887   -0.3009    1.6103 C   0  0  0  0  0
    1.2832    0.4090   -0.5188 C   0  0  0  0  0
    1.3158   -1.3423    1.6526 C   0  0  0  0  0
    2.2103   -0.6324   -0.4764 C   0  0  0  0  0
   -3.6428   -0.6540   -0.7580 C   0  0  0  0  0
    0.3725    0.5747    0.5245 C   0  0  0  0  0
   -3.9997   -3.3367   -0.0808 C   0  0  0  0  0
   -3.5810    1.7493   -0.1558 C   0  0  0  0  0
   -3.1647    1.1199   -2.4087 C   0  0  0  0  0
    1.3326   -2.2664    2.7981 C   0  0  0  0  0
    3.1714   -0.8077   -1.5777 C   0  0  0  0  0
   -0.7227    2.5894   -0.5165 C   0  0  0  0  0
   -3.1953    3.0957   -0.7223 C   0  0  0  0  0
   -1.8537    3.5454   -0.1675 C   0  0  0  0  0
   -3.4582    0.7299   -1.1074 N   0  0  0  0  0
   -0.5674    1.6319    0.4819 N   0  0  0  0  0
    0.4813   -2.0910    3.7484 O   0  0  0  0  0
    3.1350    0.0143   -2.5684 O   0  0  0  0  0
   -3.9693    1.6505    1.0059 O   0  0  0  0  0
   -2.9192    0.4359   -3.3911 O   0  0  0  0  0
    2.1985   -3.2196    2.8127 O   0  0  0  0  0
    4.0163   -1.7774   -1.5141 O   0  0  0  0  0
   -0.0739    2.6994   -1.5514 O   0  0  0  0  0
   -3.1072    2.8710   -2.5080 S   0  0  0  0  0
   -4.2199   -4.9918    0.3371 Cl  0  0  0  0  0
  1  3  1  0  0  0
  2 10  1  0  0  0
  4 12  1  0  0  0
  5  8  1  0  0  0
  6 11  1  0  0  0
  7  9  1  0  0  0
  8 15  1  0  0  0
  9 16  1  0  0  0
 10 20  1  0  0  0
 11 21  1  0  0  0
 12 30  1  0  0  0
 13 20  1  0  0  0
 14 20  1  0  0  0
 14 29  1  0  0  0
 15 22  1  0  0  0
 16 23  1  0  0  0
 17 21  1  0  0  0
 18 13  1  0  0  0
 18 19  1  0  0  0
 18 29  1  0  0  0
 19 17  1  0  0  0
  1 10  2  0  0  0
  2  4  2  0  0  0
  3 12  2  0  0  0
  5  9  2  0  0  0
  6  8  2  0  0  0
  7 11  2  0  0  0
 13 24  2  0  0  0
 14 25  2  0  0  0
 15 26  2  0  0  0
 16 27  2  0  0  0
 17 28  2  0  0  0
M  CHG  2  22  -1  23  -1
M  END
> <rmsd>
0.329998791

$$$$
ZINC16925243


 30 32  0  0  0  0  0  0  0  0999 V2000
    2.1304   -1.1137    0.9954 C   0  0  0  0  0
    1.3630   -0.6977    2.0833 C   0  0  0  0  0
   -2.9725   -1.1586    0.2152 C   0  0  0  0  0
   -4.2414   -1.5761   -1.7979 C   0  0  0  0  0
   -2.9462   -2.5273    0.4826 C   0  0  0  0  0
   -4.2151   -2.9449   -1.5306 C   0  0  0  0  0
    0.9993    0.4888   -0.4153 C   0  0  0  0  0
    1.9487   -0.5204   -0.2539 C   0  0  0  0  0
    0.4137    0.3115    1.9219 C   0  0  0  0  0
   -3.6201   -0.6830   -0.9250 C   0  0  0  0  0
    0.2319    0.9047    0.6726 C   0  0  0  0  0
   -3.5674   -3.4205   -0.3903 C   0  0  0  0  0
   -3.6250    1.6782   -0.1722 C   0  0  0  0  0
   -3.7110    1.2164   -2.5011 C   0  0  0  0  0
    2.7595   -0.9591   -1.4011 C   0  0  0  0  0
   -0.3840    0.7318    3.0897 C   0  0  0  0  0
   -1.0186    2.6135   -0.6906 C   0  0  0  0  0
   -3.5064    3.0856   -0.7087 C   0  0  0  0  0
   -2.1151    3.6409   -0.4519 C   0  0  0  0  0
   -3.6468    0.7292   -1.2011 N   0  0  0  0  0
   -0.7249    1.9308    0.4864 N   0  0  0  0  0
    2.5723   -0.3957   -2.5442 O   0  0  0  0  0
    0.0637    1.6820    3.8320 O   0  0  0  0  0
   -3.7114    1.4781    1.0372 O   0  0  0  0  0
   -3.6511    0.6148   -3.5631 O   0  0  0  0  0
    3.6297   -1.8920   -1.2246 O   0  0  0  0  0
   -1.4978    0.1325    3.3232 O   0  0  0  0  0
   -0.5036    2.4557   -1.7925 O   0  0  0  0  0
   -3.8324    2.9669   -2.4771 S   0  0  0  0  0
   -3.5350   -5.1094   -0.0602 Cl  0  0  0  0  0
  1  8  1  0  0  0
  2  9  1  0  0  0
  3  5  1  0  0  0
  4 10  1  0  0  0
  6 12  1  0  0  0
  7 11  1  0  0  0
  8 15  1  0  0  0
  9 16  1  0  0  0
 10 20  1  0  0  0
 11 21  1  0  0  0
 12 30  1  0  0  0
 13 20  1  0  0  0
 14 20  1  0  0  0
 14 29  1  0  0  0
 15 22  1  0  0  0
 16 23  1  0  0  0
 17 21  1  0  0  0
 18 13  1  0  0  0
 18 19  1  0  0  0
 18 29  1  0  0  0
 19 17  1  0  0  0
  1  2  2  0  0  0
  3 10  2  0  0  0
  4  6  2  0  0  0
  5 12  2  0  0  0
  7  8  2  0  0  0
  9 11  2  0  0  0
 13 24  2  0  0  0
 14 25  2  0  0  0
 15 26  2  0  0  0
 16 27  2  0  0  0
 17 28  2  0  0  0
M  CHG  2  22  -1  23  -1
M  END
> <rmsd>
0.568274498

$$$$
ZINC08396680


 31 33  0  0  0  0  0  0  0  0999 V2000
   -2.9128   -2.3090   -1.7750 C   0  0  0  0  0
   -2.7457   -0.9384   -1.5776 C   0  0  0  0  0
    1.8177    1.4709   -2.6486 C   0  0  0  0  0
   -0.1299    2.4587   -1.6154 C   0  0  0  0  0
    0.8586    0.4665   -0.6717 C   0  0  0  0  0
   -3.3842   -1.1938    0.7383 C   0  0  0  0  0
    0.8390    2.4642   -2.6188 C   0  0  0  0  0
    1.8275    0.4719   -1.6751 C   0  0  0  0  0
   -3.3158   -3.1221   -0.7156 C   0  0  0  0  0
   -0.1201    1.4599   -0.6418 C   0  0  0  0  0
   -3.5515   -2.5645    0.5410 C   0  0  0  0  0
   -2.9813   -0.3808   -0.3210 C   0  0  0  0  0
    0.8287    3.5182   -3.6462 C   0  0  0  0  0
    2.8604   -0.5765   -1.7067 C   0  0  0  0  0
   -3.8590   -7.2933   -1.5325 C   0  0  0  0  0
   -2.5210   -6.7632   -1.0322 C   0  0  0  0  0
   -4.9978   -6.4310   -1.0013 C   0  0  0  0  0
   -2.3285   -5.2906   -1.3914 C   0  0  0  0  0
   -4.8026   -4.9613   -1.3668 C   0  0  0  0  0
   -3.4757   -4.4950   -0.9394 N   0  0  0  0  0
   -1.1184    1.4550    0.3934 N   0  0  0  0  0
   -3.9625   -3.3712    1.6391 N   0  0  0  0  0
   -0.0859    4.4234   -3.5961 O   0  0  0  0  0
    2.8473   -1.4869   -0.7960 O   0  0  0  0  0
   -5.1878   -3.5478    1.8346 O   0  0  0  0  0
    1.7345    3.5003   -4.5615 O   0  0  0  0  0
    3.7433   -0.5483   -2.6438 O   0  0  0  0  0
   -3.0867   -3.8807    2.3767 O   0  0  0  0  0
   -3.5947    1.7243    1.0640 O   0  0  0  0  0
   -2.9687    2.0163   -1.3489 O   0  0  0  0  0
   -2.7721    1.3350   -0.0752 S   0  0  0  0  0
  1  2  1  0  0  0
  3  7  1  0  0  0
  4 10  1  0  0  0
  5  8  1  0  0  0
  6 12  1  0  0  0
  7 13  1  0  0  0
  8 14  1  0  0  0
  9 11  1  0  0  0
  9 20  1  0  0  0
 10 21  1  0  0  0
 11 22  1  0  0  0
 13 23  1  0  0  0
 14 24  1  0  0  0
 15 16  1  0  0  0
 15 17  1  0  0  0
 16 18  1  0  0  0
 17 19  1  0  0  0
 18 20  1  0  0  0
 19 20  1  0  0  0
 22 25  1  0  0  0
 31 12  1  0  0  0
 31 21  1  0  0  0
  1  9  2  0  0  0
  2 12  2  0  0  0
  3  8  2  0  0  0
  4  7  2  0  0  0
  5 10  2  0  0  0
  6 11  2  0  0  0
 13 26  2  0  0  0
 14 27  2  0  0  0
 22 28  2  0  0  0
 31 29  2  0  0  0
 31 30  2  0  0  0
M  CHG  4  22   1  23  -1  24  -1  25  -1
M  END
> <rmsd>
0.520177722

$$$$
ZINC58611798


 30 32  0  0  0  0  0  0  0  0999 V2000
    3.7240   -0.9575    1.7397 C   0  0  0  0  0
    2.9245   -2.0229    2.1536 C   0  0  0  0  0
    1.2812    3.1088   -1.8955 C   0  0  0  0  0
    3.8535   -0.6693    0.3810 C   0  0  0  0  0
   -3.1515   -2.1568   -1.8996 C   0  0  0  0  0
    1.8220    1.9572   -2.4672 C   0  0  0  0  0
   -3.0965   -0.7884   -1.6349 C   0  0  0  0  0
    2.3840   -2.5121   -0.1499 C   0  0  0  0  0
   -2.7740   -2.6246    0.4404 C   0  0  0  0  0
    0.3741    0.5954   -1.0938 C   0  0  0  0  0
    2.2546   -2.8003    1.2089 C   0  0  0  0  0
    0.2869    3.0036   -0.9227 C   0  0  0  0  0
   -2.7190   -1.2562    0.7050 C   0  0  0  0  0
    3.1835   -1.4467   -0.5638 C   0  0  0  0  0
   -0.1666    1.7469   -0.5220 C   0  0  0  0  0
   -2.9903   -3.0749   -0.8620 C   0  0  0  0  0
    1.3684    0.7005   -2.0664 C   0  0  0  0  0
   -2.8802   -0.3381   -0.3327 C   0  0  0  0  0
    1.4017   -3.9406    1.6519 C   0  0  0  0  0
   -0.2754    4.2527   -0.3261 C   0  0  0  0  0
   -2.4840   -0.8070    2.1104 C   0  0  0  0  0
    3.3072   -1.1670   -1.8758 N   0  0  0  0  0
   -1.1848    1.6185    0.4742 N   0  0  0  0  0
    0.9448   -1.7217   -2.7571 O   0  0  0  0  0
    2.4147   -0.3358   -4.1517 O   0  0  0  0  0
   -3.6964    1.6710    1.0898 O   0  0  0  0  0
   -3.0371    2.0803   -1.2970 O   0  0  0  0  0
   -3.0439   -4.3889   -1.1155 F   0  0  0  0  0
    2.0679   -0.7880   -2.8062 S   0  0  0  0  0
   -2.8162    1.4050   -0.0326 S   0  0  0  0  0
  1  4  1  0  0  0
  2 11  1  0  0  0
  3 12  1  0  0  0
  5 16  1  0  0  0
  6 17  1  0  0  0
  7 18  1  0  0  0
  8 14  1  0  0  0
  9 13  1  0  0  0
 10 15  1  0  0  0
 14 22  1  0  0  0
 15 23  1  0  0  0
 16 28  1  0  0  0
 19 11  1  0  0  0
 20 12  1  0  0  0
 21 13  1  0  0  0
 29 17  1  0  0  0
 29 22  1  0  0  0
 30 18  1  0  0  0
 30 23  1  0  0  0
  1  2  2  0  0  0
  3  6  2  0  0  0
  4 14  2  0  0  0
  5  7  2  0  0  0
  8 11  2  0  0  0
  9 16  2  0  0  0
 10 17  2  0  0  0
 12 15  2  0  0  0
 13 18  2  0  0  0
 29 24  2  0  0  0
 29 25  2  0  0  0
 30 26  2  0  0  0
 30 27  2  0  0  0
M  CHG  1  22  -1
M  END
> <rmsd>
0.626761913

$$$$
ZINC58611798


 30 32  0  0  0  0  0  0  0  0999 V2000
    2.2590   -2.8041    1.2085 C   0  0  0  0  0
    2.9302   -2.0283    2.1534 C   0  0  0  0  0
    1.2814    3.1086   -1.8951 C   0  0  0  0  0
    2.3859   -2.5134   -0.1499 C   0  0  0  0  0
   -3.1511   -2.1572   -1.8990 C   0  0  0  0  0
    1.8222    1.9571   -2.4668 C   0  0  0  0  0
   -3.0962   -0.7887   -1.6343 C   0  0  0  0  0
    3.8551   -0.6707    0.3818 C   0  0  0  0  0
   -2.7736   -2.6248    0.4411 C   0  0  0  0  0
    0.3744    0.5952   -1.0933 C   0  0  0  0  0
    3.7283   -0.9615    1.7402 C   0  0  0  0  0
    0.2871    3.0035   -0.9224 C   0  0  0  0  0
   -2.7186   -1.2564    0.7057 C   0  0  0  0  0
    3.1839   -1.4467   -0.5632 C   0  0  0  0  0
   -0.1663    1.7468   -0.5215 C   0  0  0  0  0
   -2.9899   -3.0752   -0.8613 C   0  0  0  0  0
    1.3687    0.7003   -2.0660 C   0  0  0  0  0
   -2.8798   -0.3383   -0.3321 C   0  0  0  0  0
    4.4439   -0.1309    2.7512 C   0  0  0  0  0
   -0.2753    4.2526   -0.3258 C   0  0  0  0  0
   -2.4836   -0.8071    2.1110 C   0  0  0  0  0
    3.3076   -1.1671   -1.8752 N   0  0  0  0  0
   -1.1846    1.6184    0.4746 N   0  0  0  0  0
    0.9451   -1.7219   -2.7565 O   0  0  0  0  0
    2.4150   -0.3360   -4.1512 O   0  0  0  0  0
   -3.6962    1.6708    1.0903 O   0  0  0  0  0
   -3.0369    2.0800   -1.2966 O   0  0  0  0  0
   -3.0434   -4.3892   -1.1147 F   0  0  0  0  0
    2.0682   -0.7882   -2.8056 S   0  0  0  0  0
   -2.8159    1.4048   -0.0321 S   0  0  0  0  0
  1  4  1  0  0  0
  2 11  1  0  0  0
  3 12  1  0  0  0
  5 16  1  0  0  0
  6 17  1  0  0  0
  7 18  1  0  0  0
  8 14  1  0  0  0
  9 13  1  0  0  0
 10 15  1  0  0  0
 14 22  1  0  0  0
 15 23  1  0  0  0
 16 28  1  0  0  0
 19 11  1  0  0  0
 20 12  1  0  0  0
 21 13  1  0  0  0
 29 17  1  0  0  0
 29 22  1  0  0  0
 30 18  1  0  0  0
 30 23  1  0  0  0
  1  2  2  0  0  0
  3  6  2  0  0  0
  4 14  2  0  0  0
  5  7  2  0  0  0
  8 11  2  0  0  0
  9 16  2  0  0  0
 10 17  2  0  0  0
 12 15  2  0  0  0
 13 18  2  0  0  0
 29 24  2  0  0  0
 29 25  2  0  0  0
 30 26  2  0  0  0
 30 27  2  0  0  0
M  CHG  1  22  -1
M  END
> <rmsd>
0.626700044

$$$$
ZINC06088981


 31 33  0  0  0  0  0  0  0  0999 V2000
   -2.9135   -2.3096   -1.7747 C   0  0  0  0  0
   -2.7462   -0.9390   -1.5774 C   0  0  0  0  0
    1.8174    1.4697   -2.6489 C   0  0  0  0  0
   -0.1301    2.4579   -1.6155 C   0  0  0  0  0
    0.8584    0.4655   -0.6718 C   0  0  0  0  0
   -3.3845   -1.1943    0.7387 C   0  0  0  0  0
    0.8388    2.4632   -2.6191 C   0  0  0  0  0
    1.8271    0.4708   -1.6753 C   0  0  0  0  0
   -3.3165   -3.1226   -0.7153 C   0  0  0  0  0
   -0.1203    1.4590   -0.6418 C   0  0  0  0  0
   -3.5519   -2.5649    0.5414 C   0  0  0  0  0
   -2.9817   -0.3813   -0.3208 C   0  0  0  0  0
    0.8285    3.5172   -3.6465 C   0  0  0  0  0
    2.8599   -0.5777   -1.7070 C   0  0  0  0  0
   -2.3161   -5.3708   -0.7291 C   0  0  0  0  0
   -4.4425   -4.9647   -1.9373 C   0  0  0  0  0
   -2.7864   -6.8055   -0.5183 C   0  0  0  0  0
   -4.7991   -6.4214   -1.6624 C   0  0  0  0  0
   -3.4764   -4.4940   -0.9387 N   0  0  0  0  0
   -1.1184    1.4542    0.3934 N   0  0  0  0  0
   -3.9630   -3.3716    1.6395 N   0  0  0  0  0
   -0.0860    4.4225   -3.5964 O   0  0  0  0  0
    2.8467   -1.4881   -0.7963 O   0  0  0  0  0
   -5.1883   -3.5480    1.8352 O   0  0  0  0  0
    1.7342    3.4991   -4.5618 O   0  0  0  0  0
    3.7426   -0.5498   -2.6442 O   0  0  0  0  0
   -3.0872   -3.8810    2.3771 O   0  0  0  0  0
   -3.5947    1.7239    1.0642 O   0  0  0  0  0
   -2.9688    2.0158   -1.3487 O   0  0  0  0  0
   -3.6192   -7.2219   -1.6002 O   0  0  0  0  0
   -2.7721    1.3345   -0.0750 S   0  0  0  0  0
  1  2  1  0  0  0
  3  7  1  0  0  0
  4 10  1  0  0  0
  5  8  1  0  0  0
  6 12  1  0  0  0
  7 13  1  0  0  0
  8 14  1  0  0  0
  9 11  1  0  0  0
  9 19  1  0  0  0
 10 20  1  0  0  0
 11 21  1  0  0  0
 13 22  1  0  0  0
 14 23  1  0  0  0
 15 17  1  0  0  0
 15 19  1  0  0  0
 16 18  1  0  0  0
 16 19  1  0  0  0
 17 30  1  0  0  0
 18 30  1  0  0  0
 21 24  1  0  0  0
 31 12  1  0  0  0
 31 20  1  0  0  0
  1  9  2  0  0  0
  2 12  2  0  0  0
  3  8  2  0  0  0
  4  7  2  0  0  0
  5 10  2  0  0  0
  6 11  2  0  0  0
 13 25  2  0  0  0
 14 26  2  0  0  0
 21 27  2  0  0  0
 31 28  2  0  0  0
 31 29  2  0  0  0
M  CHG  4  21   1  22  -1  23  -1  24  -1
M  END
> <rmsd>
0.520373344

$$$$
ZINC09546105


 31 34  0  0  0  0  0  0  0  0999 V2000
    0.9933    2.8185   -2.2661 C   0  0  0  0  0
   -0.0554    2.7198   -1.3517 C   0  0  0  0  0
   -3.2572   -2.5877    0.4261 C   0  0  0  0  0
   -3.2068   -1.2136    0.6582 C   0  0  0  0  0
    0.9995    0.7909   -0.3501 C   0  0  0  0  0
   -2.3805   -0.8697   -1.5825 C   0  0  0  0  0
    2.0450    1.9033   -2.2225 C   0  0  0  0  0
   -0.0523    1.7060   -0.3937 C   0  0  0  0  0
    2.0482    0.8895   -1.2645 C   0  0  0  0  0
   -2.8843   -3.1106   -0.8174 C   0  0  0  0  0
   -2.4035   -2.2500   -1.8138 C   0  0  0  0  0
   -2.7786   -0.3536   -0.3496 C   0  0  0  0  0
   -2.2073   -5.0542   -3.1556 C   0  0  0  0  0
    4.2347    2.8614   -2.7790 C   0  0  0  0  0
    2.7918    1.9371   -4.5843 C   0  0  0  0  0
    5.4744    2.4489   -3.5610 C   0  0  0  0  0
    4.0354    1.5311   -5.3651 C   0  0  0  0  0
   -3.4137   -4.9001   -2.2422 C   0  0  0  0  0
   -1.2447   -3.8824   -3.0408 C   0  0  0  0  0
    6.3831    2.2038   -5.8707 C   0  0  0  0  0
    3.0860    2.0247   -3.1504 N   0  0  0  0  0
   -1.1335    1.6050    0.5492 N   0  0  0  0  0
    3.1095   -0.0562   -1.1973 N   0  0  0  0  0
    5.1632    2.4751   -5.0359 N   0  0  0  0  0
    3.0196   -1.1147   -1.8622 O   0  0  0  0  0
    4.1019    0.1985   -0.4755 O   0  0  0  0  0
   -3.6722    1.6715    1.0018 O   0  0  0  0  0
   -2.8630    2.0568   -1.3426 O   0  0  0  0  0
   -3.0205   -4.4705   -0.9389 O   0  0  0  0  0
   -1.9454   -2.6387   -3.0474 O   0  0  0  0  0
   -2.7257    1.3681   -0.0651 S   0  0  0  0  0
  1  7  1  0  0  0
  2  8  1  0  0  0
  3 10  1  0  0  0
  4 12  1  0  0  0
  5  9  1  0  0  0
  6 11  1  0  0  0
  7 21  1  0  0  0
  8 22  1  0  0  0
  9 23  1  0  0  0
 10 29  1  0  0  0
 11 30  1  0  0  0
 13 18  1  0  0  0
 13 19  1  0  0  0
 14 16  1  0  0  0
 14 21  1  0  0  0
 15 17  1  0  0  0
 15 21  1  0  0  0
 16 24  1  0  0  0
 17 24  1  0  0  0
 18 29  1  0  0  0
 19 30  1  0  0  0
 20 24  1  0  0  0
 23 25  1  0  0  0
 31 12  1  0  0  0
 31 22  1  0  0  0
  1  2  2  0  0  0
  3  4  2  0  0  0
  5  8  2  0  0  0
  6 12  2  0  0  0
  7  9  2  0  0  0
 10 11  2  0  0  0
 23 26  2  0  0  0
 31 27  2  0  0  0
 31 28  2  0  0  0
M  CHG  3  23   1  24   1  25  -1
M  END
> <rmsd>
0.711330533

$$$$
ZINC12574796


 31 32  0  0  0  0  0  0  0  0999 V2000
   -4.3278   -2.4181    0.6762 C   0  0  0  0  0
   -4.1125   -1.0556    0.4696 C   0  0  0  0  0
   -3.7775   -3.3521   -0.2016 C   0  0  0  0  0
    1.5479   -2.4760    1.8468 C   0  0  0  0  0
    2.2032   -1.3349   -0.1793 C   0  0  0  0  0
    3.4351   -3.2746    0.5670 C   0  0  0  0  0
    1.3558   -1.4490    0.9227 C   0  0  0  0  0
   -2.7966   -1.5610   -1.4925 C   0  0  0  0  0
   -3.3469   -0.6270   -0.6146 C   0  0  0  0  0
    2.5877   -3.3888    1.6691 C   0  0  0  0  0
    3.2430   -2.2477   -0.3572 C   0  0  0  0  0
   -3.0119   -2.9235   -1.2860 C   0  0  0  0  0
    0.2484   -0.4765    1.1123 C   0  0  0  0  0
   -3.6253    1.8042   -0.0196 C   0  0  0  0  0
   -0.6875    2.6704   -0.3143 C   0  0  0  0  0
   -1.9760   -1.0892   -2.6533 C   0  0  0  0  0
   -3.1705    3.1473   -0.5791 C   0  0  0  0  0
   -1.8358    3.6179   -0.0099 C   0  0  0  0  0
   -3.1431    0.7605   -0.8045 N   0  0  0  0  0
    0.4475    0.7734    0.5575 N   0  0  0  0  0
   -0.5458    1.7148    0.6762 N   0  0  0  0  0
    2.7836   -4.4338    2.6104 N   0  0  0  0  0
    4.1058   -2.1313   -1.4790 N   0  0  0  0  0
    2.0102   -4.5180    3.5948 O   0  0  0  0  0
    3.9153   -1.2003   -2.2984 O   0  0  0  0  0
   -0.7629   -0.8260    1.7158 O   0  0  0  0  0
   -4.3179    1.7182    0.9890 O   0  0  0  0  0
    0.0127    2.7578   -1.3195 O   0  0  0  0  0
    3.7244   -5.2445    2.4317 O   0  0  0  0  0
    5.0351   -2.9625   -1.6202 O   0  0  0  0  0
   -2.3476   -4.1116   -2.3480 Cl  0  0  0  0  0
  1  2  1  0  0  0
  3 12  1  0  0  0
  4  7  1  0  0  0
  5 11  1  0  0  0
  6 10  1  0  0  0
  7 13  1  0  0  0
  8  9  1  0  0  0
  9 19  1  0  0  0
 10 22  1  0  0  0
 11 23  1  0  0  0
 12 31  1  0  0  0
 13 20  1  0  0  0
 14 19  1  0  0  0
 15 21  1  0  0  0
 16  8  1  0  0  0
 17 14  1  0  0  0
 17 18  1  0  0  0
 18 15  1  0  0  0
 20 21  1  0  0  0
 22 24  1  0  0  0
 23 25  1  0  0  0
  1  3  2  0  0  0
  2  9  2  0  0  0
  4 10  2  0  0  0
  5  7  2  0  0  0
  6 11  2  0  0  0
  8 12  2  0  0  0
 13 26  2  0  0  0
 14 27  2  0  0  0
 15 28  2  0  0  0
 22 29  2  0  0  0
 23 30  2  0  0  0
M  CHG  4  22   1  23   1  24  -1  25  -1
M  END
> <rmsd>
0.477634817

$$$$
ZINC71808286


 30 32  0  0  0  0  0  0  0  0999 V2000
   -5.4797   -2.1074   -0.3642 C   0  0  0  0  0
   -4.9870   -1.1094    0.4766 C   0  0  0  0  0
   -4.6237   -3.0958   -0.8498 C   0  0  0  0  0
   -2.2435    2.9972   -0.0229 C   0  0  0  0  0
    2.5739    0.3994   -0.3993 C   0  0  0  0  0
    3.9773   -0.7830    1.1721 C   0  0  0  0  0
   -3.6441    3.0329    0.1151 C   0  0  0  0  0
    1.7921    0.8721    0.6546 C   0  0  0  0  0
   -3.6380   -1.0998    0.8316 C   0  0  0  0  0
    2.1029    0.5174    1.9673 C   0  0  0  0  0
    3.6665   -0.4283   -0.1406 C   0  0  0  0  0
    3.1956   -0.3102    2.2261 C   0  0  0  0  0
   -3.2747   -3.0862   -0.4948 C   0  0  0  0  0
   -2.7819   -2.0882    0.3459 C   0  0  0  0  0
   -1.8685    1.8236    0.5841 C   0  0  0  0  0
    0.6577    1.7352    0.3524 C   0  0  0  0  0
    1.2590    1.0275    3.0947 C   0  0  0  0  0
   -3.1547   -0.0021    1.7404 C   0  0  0  0  0
   -4.1260    1.9665    0.7590 N   0  0  0  0  0
   -3.0223    1.2498    1.0310 N   0  0  0  0  0
   -0.5885    1.2410    0.7639 N   0  0  0  0  0
    4.4611   -0.9116   -1.2136 N   0  0  0  0  0
    3.5331   -0.6855    3.5561 N   0  0  0  0  0
    4.1633   -0.5821   -2.3872 O   0  0  0  0  0
    4.3246    0.0368    4.2065 O   0  0  0  0  0
    0.7998    2.8043   -0.2543 O   0  0  0  0  0
    5.4396   -1.6547   -0.9590 O   0  0  0  0  0
    3.0288   -1.7271    4.0377 O   0  0  0  0  0
   -2.2709   -4.3417   -1.1337 Cl  0  0  0  0  0
   -1.1082   -2.0547    0.8017 Cl  0  0  0  0  0
  1  3  1  0  0  0
  2  9  1  0  0  0
  4  7  1  0  0  0
  5 11  1  0  0  0
  6 12  1  0  0  0
  8 10  1  0  0  0
  8 16  1  0  0  0
 11 22  1  0  0  0
 12 23  1  0  0  0
 13 14  1  0  0  0
 13 29  1  0  0  0
 14 30  1  0  0  0
 15 20  1  0  0  0
 15 21  1  0  0  0
 16 21  1  0  0  0
 17 10  1  0  0  0
 18  9  1  0  0  0
 18 20  1  0  0  0
 20 19  1  0  0  0
 22 24  1  0  0  0
 23 25  1  0  0  0
  1  2  2  0  0  0
  3 13  2  0  0  0
  4 15  2  0  0  0
  5  8  2  0  0  0
  6 11  2  0  0  0
  7 19  2  0  0  0
  9 14  2  0  0  0
 10 12  2  0  0  0
 16 26  2  0  0  0
 22 27  2  0  0  0
 23 28  2  0  0  0
M  CHG  4  22   1  23   1  24  -1  25  -1
M  END
> <rmsd>
0.625600576

$$$$
ZINC32961598


 31 33  0  0  0  0  0  0  0  0999 V2000
    1.0212    2.8840   -2.1900 C   0  0  0  0  0
   -0.0383    2.7669   -1.2903 C   0  0  0  0  0
   -3.2446   -2.5883    0.4334 C   0  0  0  0  0
   -2.4199   -2.2384   -1.8104 C   0  0  0  0  0
   -3.2081   -1.2127    0.6614 C   0  0  0  0  0
   -2.3834   -0.8628   -1.5825 C   0  0  0  0  0
    0.9952    0.8063   -0.3284 C   0  0  0  0  0
    2.0546    0.9234   -1.2283 C   0  0  0  0  0
    2.0675    1.9622   -2.1590 C   0  0  0  0  0
   -0.0513    1.7281   -0.3595 C   0  0  0  0  0
   -2.8505   -3.1012   -0.8026 C   0  0  0  0  0
   -2.7775   -0.3499   -0.3465 C   0  0  0  0  0
    3.1486   -0.0647   -1.1742 C   0  0  0  0  0
    6.0224    3.2380   -5.7817 C   0  0  0  0  0
    4.2742    2.9170   -2.6648 C   0  0  0  0  0
    2.8446    2.0451   -4.5127 C   0  0  0  0  0
    5.5152    2.5169   -3.4592 C   0  0  0  0  0
    4.1071    1.6618   -5.2840 C   0  0  0  0  0
    5.7686    3.5792   -9.4279 C   0  0  0  0  0
    6.3645    3.8313   -8.0593 C   0  0  0  0  0
    3.1210    2.0971   -3.0704 N   0  0  0  0  0
    5.2323    2.5097   -4.8907 N   0  0  0  0  0
   -1.1360    1.6086    0.5612 N   0  0  0  0  0
    3.0524   -1.1307   -1.8876 O   0  0  0  0  0
    4.1591    0.1753   -0.4152 O   0  0  0  0  0
    6.9884    3.9229   -5.4504 O   0  0  0  0  0
   -3.6867    1.6729    0.9980 O   0  0  0  0  0
   -2.8584    2.0606   -1.3393 O   0  0  0  0  0
    5.6057    3.1119   -7.0803 O   0  0  0  0  0
   -2.8843   -4.4223   -1.0210 F   0  0  0  0  0
   -2.7298    1.3954   -0.0570 S   0  0  0  0  0
  1  9  1  0  0  0
  2 10  1  0  0  0
  3 11  1  0  0  0
  4  6  1  0  0  0
  5 12  1  0  0  0
  7  8  1  0  0  0
  8 13  1  0  0  0
  9 21  1  0  0  0
 10 23  1  0  0  0
 11 30  1  0  0  0
 13 24  1  0  0  0
 14 22  1  0  0  0
 14 29  1  0  0  0
 15 17  1  0  0  0
 15 21  1  0  0  0
 16 18  1  0  0  0
 16 21  1  0  0  0
 17 22  1  0  0  0
 18 22  1  0  0  0
 19 20  1  0  0  0
 20 29  1  0  0  0
 31 12  1  0  0  0
 31 23  1  0  0  0
  1  2  2  0  0  0
  3  5  2  0  0  0
  4 11  2  0  0  0
  6 12  2  0  0  0
  7 10  2  0  0  0
  8  9  2  0  0  0
 13 25  2  0  0  0
 14 26  2  0  0  0
 31 27  2  0  0  0
 31 28  2  0  0  0
M  CHG  1  24  -1
M  END
> <rmsd>
0.707430899

$$$$
ZINC32961598


 31 33  0  0  0  0  0  0  0  0999 V2000
    0.8690    2.5244   -2.5707 C   0  0  0  0  0
   -0.1069    2.5011   -1.5744 C   0  0  0  0  0
   -3.5400   -2.5659    0.5394 C   0  0  0  0  0
   -2.9057   -2.3074   -1.7774 C   0  0  0  0  0
   -3.3762   -1.1950    0.7374 C   0  0  0  0  0
   -2.7419   -0.9363   -1.5795 C   0  0  0  0  0
    0.8583    0.4765   -0.6763 C   0  0  0  0  0
    1.8342    0.4998   -1.6728 C   0  0  0  0  0
    1.8395    1.5238   -2.6199 C   0  0  0  0  0
   -0.1122    1.4772   -0.6272 C   0  0  0  0  0
   -3.3047   -3.1222   -0.7180 C   0  0  0  0  0
   -2.9772   -0.3801   -0.3221 C   0  0  0  0  0
    2.8489   -0.5704   -1.7022 C   0  0  0  0  0
    5.5224    2.4440   -6.6176 C   0  0  0  0  0
    4.0557    2.2966   -3.3463 C   0  0  0  0  0
    2.3957    1.5187   -5.0368 C   0  0  0  0  0
    5.1819    1.7913   -4.2451 C   0  0  0  0  0
    3.5466    1.0288   -5.9148 C   0  0  0  0  0
    4.9535    2.7627  -10.2302 C   0  0  0  0  0
    5.6933    2.9827   -8.9279 C   0  0  0  0  0
    2.8097    1.5652   -3.6277 N   0  0  0  0  0
    4.7659    1.7901   -5.6437 N   0  0  0  0  0
   -1.1114    1.4536    0.3925 N   0  0  0  0  0
    2.6042   -1.6336   -2.3836 O   0  0  0  0  0
    3.9419   -0.4019   -1.0451 O   0  0  0  0  0
    6.5652    3.0547   -6.3905 O   0  0  0  0  0
   -3.5971    1.7229    1.0631 O   0  0  0  0  0
   -2.9651    2.0179   -1.3479 O   0  0  0  0  0
    4.9768    2.3363   -7.8694 O   0  0  0  0  0
   -3.4606   -4.4390   -0.9076 F   0  0  0  0  0
   -2.7680    1.3593   -0.0709 S   0  0  0  0  0
  1  9  1  0  0  0
  2 10  1  0  0  0
  3 11  1  0  0  0
  4  6  1  0  0  0
  5 12  1  0  0  0
  7  8  1  0  0  0
  8 13  1  0  0  0
  9 21  1  0  0  0
 10 23  1  0  0  0
 11 30  1  0  0  0
 13 24  1  0  0  0
 14 22  1  0  0  0
 14 29  1  0  0  0
 15 17  1  0  0  0
 15 21  1  0  0  0
 16 18  1  0  0  0
 16 21  1  0  0  0
 17 22  1  0  0  0
 18 22  1  0  0  0
 19 20  1  0  0  0
 20 29  1  0  0  0
 31 12  1  0  0  0
 31 23  1  0  0  0
  1  2  2  0  0  0
  3  5  2  0  0  0
  4 11  2  0  0  0
  6 12  2  0  0  0
  7 10  2  0  0  0
  8  9  2  0  0  0
 13 25  2  0  0  0
 14 26  2  0  0  0
 31 27  2  0  0  0
 31 28  2  0  0  0
M  CHG  1  24  -1
M  END
> <rmsd>
0.526416481

$$$$
ZINC58148032


 30 32  0  0  0  0  0  0  0  0999 V2000
    1.0081    2.8725   -2.2098 C   0  0  0  0  0
   -0.0481    2.7593   -1.3059 C   0  0  0  0  0
    0.9938    0.8087   -0.3327 C   0  0  0  0  0
   -2.8505   -3.1017   -0.8290 C   0  0  0  0  0
   -2.9044   -0.8258   -1.6380 C   0  0  0  0  0
    2.0500    0.9220   -1.2368 C   0  0  0  0  0
   -2.7218   -2.6338    0.4787 C   0  0  0  0  0
   -2.6844   -1.2619    0.7281 C   0  0  0  0  0
    2.0572    1.9538   -2.1753 C   0  0  0  0  0
   -0.0553    1.7274   -0.3673 C   0  0  0  0  0
   -2.9418   -2.1977   -1.8874 C   0  0  0  0  0
   -2.7757   -0.3578   -0.3303 C   0  0  0  0  0
    3.1468   -0.0626   -1.1788 C   0  0  0  0  0
    2.8817    2.0286   -4.5281 C   0  0  0  0  0
    4.4572    2.4257   -2.6641 C   0  0  0  0  0
    3.0245    3.4139   -5.1483 C   0  0  0  0  0
    4.7897    3.8583   -3.0763 C   0  0  0  0  0
   -2.6264   -3.6232    1.5939 C   0  0  0  0  0
   -2.5462   -0.7695    2.1339 C   0  0  0  0  0
    3.0911    2.0828   -3.0769 N   0  0  0  0  0
   -1.1367    1.6118    0.5576 N   0  0  0  0  0
   -3.0723   -2.6743   -3.2188 N   0  0  0  0  0
    3.0514   -1.1341   -1.8840 O   0  0  0  0  0
   -3.1033   -3.9121   -3.4210 O   0  0  0  0  0
    4.1591    0.1857   -0.4249 O   0  0  0  0  0
   -3.1533   -1.8443   -4.1563 O   0  0  0  0  0
   -3.6862    1.6724    1.0021 O   0  0  0  0  0
   -2.8663    2.0451   -1.3407 O   0  0  0  0  0
    4.6954    4.0852   -4.8800 S   0  0  0  0  0
   -2.7319    1.3898   -0.0539 S   0  0  0  0  0
  1  9  1  0  0  0
  2 10  1  0  0  0
  3  6  1  0  0  0
  4  7  1  0  0  0
  5 11  1  0  0  0
  6 13  1  0  0  0
  8 12  1  0  0  0
  9 20  1  0  0  0
 10 21  1  0  0  0
 11 22  1  0  0  0
 13 23  1  0  0  0
 14 16  1  0  0  0
 14 20  1  0  0  0
 15 17  1  0  0  0
 15 20  1  0  0  0
 16 29  1  0  0  0
 17 29  1  0  0  0
 18  7  1  0  0  0
 19  8  1  0  0  0
 22 24  1  0  0  0
 30 12  1  0  0  0
 30 21  1  0  0  0
  1  2  2  0  0  0
  3 10  2  0  0  0
  4 11  2  0  0  0
  5 12  2  0  0  0
  6  9  2  0  0  0
  7  8  2  0  0  0
 13 25  2  0  0  0
 22 26  2  0  0  0
 30 27  2  0  0  0
 30 28  2  0  0  0
M  CHG  3  22   1  23  -1  24  -1
M  END
> <rmsd>
0.709855795

$$$$
ZINC58148032


 30 32  0  0  0  0  0  0  0  0999 V2000
    0.8566    2.5096   -2.5871 C   0  0  0  0  0
   -0.1163    2.4911   -1.5877 C   0  0  0  0  0
    0.8573    0.4760   -0.6774 C   0  0  0  0  0
   -3.3087   -3.1235   -0.7421 C   0  0  0  0  0
   -3.2610   -0.8604   -1.5863 C   0  0  0  0  0
    1.8301    0.4945   -1.6769 C   0  0  0  0  0
   -3.0226   -2.6517    0.5389 C   0  0  0  0  0
   -2.8556   -1.2843    0.7574 C   0  0  0  0  0
    1.8298    1.5113   -2.6317 C   0  0  0  0  0
   -0.1160    1.4743   -0.6328 C   0  0  0  0  0
   -3.4279   -2.2278   -1.8048 C   0  0  0  0  0
   -2.9748   -0.3885   -0.3053 C   0  0  0  0  0
    2.8477   -0.5730   -1.7013 C   0  0  0  0  0
    2.4343    1.4926   -5.0515 C   0  0  0  0  0
    4.2030    1.7859   -3.3485 C   0  0  0  0  0
    2.6258    2.8547   -5.7087 C   0  0  0  0  0
    4.6059    3.1827   -3.8170 C   0  0  0  0  0
   -2.9007   -3.6322    1.6594 C   0  0  0  0  0
   -2.5489   -0.7876    2.1348 C   0  0  0  0  0
    2.7818    1.5473   -3.6270 N   0  0  0  0  0
   -1.1120    1.4557    0.3898 N   0  0  0  0  0
   -3.7188   -2.7084   -3.1091 N   0  0  0  0  0
    2.6039   -1.6419   -2.3740 O   0  0  0  0  0
   -3.8646   -3.9422   -3.2838 O   0  0  0  0  0
    3.9421   -0.3967   -1.0488 O   0  0  0  0  0
   -3.8222   -1.8859   -4.0510 O   0  0  0  0  0
   -3.5964    1.7232    1.0660 O   0  0  0  0  0
   -2.9723    2.0019   -1.3490 O   0  0  0  0  0
    4.3615    3.3947   -5.6084 S   0  0  0  0  0
   -2.7697    1.3534   -0.0677 S   0  0  0  0  0
  1  9  1  0  0  0
  2 10  1  0  0  0
  3  6  1  0  0  0
  4  7  1  0  0  0
  5 11  1  0  0  0
  6 13  1  0  0  0
  8 12  1  0  0  0
  9 20  1  0  0  0
 10 21  1  0  0  0
 11 22  1  0  0  0
 13 23  1  0  0  0
 14 16  1  0  0  0
 14 20  1  0  0  0
 15 17  1  0  0  0
 15 20  1  0  0  0
 16 29  1  0  0  0
 17 29  1  0  0  0
 18  7  1  0  0  0
 19  8  1  0  0  0
 22 24  1  0  0  0
 30 12  1  0  0  0
 30 21  1  0  0  0
  1  2  2  0  0  0
  3 10  2  0  0  0
  4 11  2  0  0  0
  5 12  2  0  0  0
  6  9  2  0  0  0
  7  8  2  0  0  0
 13 25  2  0  0  0
 22 26  2  0  0  0
 30 27  2  0  0  0
 30 28  2  0  0  0
M  CHG  3  22   1  23  -1  24  -1
M  END
> <rmsd>
0.528220475

$$$$
ZINC33253086


 32 35  0  0  0  0  0  0  0  0999 V2000
    8.4261    2.7837   -7.6668 C   0  0  0  0  0
    7.6763    1.6079   -7.6381 C   0  0  0  0  0
    8.1271    3.8234   -6.7862 C   0  0  0  0  0
   -3.2451   -2.5888    0.4338 C   0  0  0  0  0
   -2.4215   -2.2385   -1.8103 C   0  0  0  0  0
    6.6272    1.4718   -6.7288 C   0  0  0  0  0
    7.0780    3.6873   -5.8771 C   0  0  0  0  0
    1.0202    2.8835   -2.1907 C   0  0  0  0  0
   -0.0390    2.7666   -1.2907 C   0  0  0  0  0
   -3.2080   -1.2133    0.6621 C   0  0  0  0  0
   -2.3844   -0.8629   -1.5820 C   0  0  0  0  0
    0.9948    0.8063   -0.3284 C   0  0  0  0  0
    2.0541    0.9233   -1.2284 C   0  0  0  0  0
   -2.8517   -3.1013   -0.8025 C   0  0  0  0  0
    6.3281    2.5116   -5.8483 C   0  0  0  0  0
    2.0668    1.9619   -2.1595 C   0  0  0  0  0
   -0.0517    1.7280   -0.3596 C   0  0  0  0  0
   -2.7777   -0.3503   -0.3457 C   0  0  0  0  0
    3.1482   -0.0646   -1.1741 C   0  0  0  0  0
    4.1151    1.5488   -5.2539 C   0  0  0  0  0
    5.3121    3.0555   -3.6463 C   0  0  0  0  0
    2.8743    2.0480   -4.5084 C   0  0  0  0  0
    4.4896    2.2903   -2.6059 C   0  0  0  0  0
   -2.8892   -4.5721   -1.0463 C   0  0  0  0  0
    5.2807    2.3754   -4.9411 N   0  0  0  0  0
    3.1148    2.0959   -3.0664 N   0  0  0  0  0
   -1.1363    1.6087    0.5613 N   0  0  0  0  0
    3.0521   -1.1308   -1.8873 O   0  0  0  0  0
    4.1588    0.1757   -0.4154 O   0  0  0  0  0
   -3.6870    1.6728    0.9984 O   0  0  0  0  0
   -2.8590    2.0600   -1.3392 O   0  0  0  0  0
   -2.7301    1.3952   -0.0567 S   0  0  0  0  0
  1  2  1  0  0  0
  3  7  1  0  0  0
  4 14  1  0  0  0
  5 11  1  0  0  0
  6 15  1  0  0  0
  8 16  1  0  0  0
  9 17  1  0  0  0
 10 18  1  0  0  0
 12 13  1  0  0  0
 13 19  1  0  0  0
 15 25  1  0  0  0
 16 26  1  0  0  0
 17 27  1  0  0  0
 19 28  1  0  0  0
 20 22  1  0  0  0
 20 25  1  0  0  0
 21 23  1  0  0  0
 21 25  1  0  0  0
 22 26  1  0  0  0
 23 26  1  0  0  0
 24 14  1  0  0  0
 32 18  1  0  0  0
 32 27  1  0  0  0
  1  3  2  0  0  0
  2  6  2  0  0  0
  4 10  2  0  0  0
  5 14  2  0  0  0
  7 15  2  0  0  0
  8  9  2  0  0  0
 11 18  2  0  0  0
 12 17  2  0  0  0
 13 16  2  0  0  0
 19 29  2  0  0  0
 32 30  2  0  0  0
 32 31  2  0  0  0
M  CHG  1  28  -1
M  END
> <rmsd>
0.707087219

$$$$
ZINC33253086


 32 35  0  0  0  0  0  0  0  0999 V2000
    7.6960    1.7801   -8.7091 C   0  0  0  0  0
    6.8637    0.6673   -8.5888 C   0  0  0  0  0
    7.5623    2.8501   -7.8241 C   0  0  0  0  0
   -3.5406   -2.5663    0.5400 C   0  0  0  0  0
   -2.9073   -2.3074   -1.7771 C   0  0  0  0  0
    5.8975    0.6244   -7.5836 C   0  0  0  0  0
    6.5961    2.8071   -6.8190 C   0  0  0  0  0
    0.8682    2.5237   -2.5712 C   0  0  0  0  0
   -0.1075    2.5006   -1.5747 C   0  0  0  0  0
   -3.3763   -1.1955    0.7382 C   0  0  0  0  0
   -2.7429   -0.9364   -1.5789 C   0  0  0  0  0
    0.8580    0.4763   -0.6762 C   0  0  0  0  0
    1.8337    0.4994   -1.6727 C   0  0  0  0  0
   -3.3061   -3.1223   -0.7177 C   0  0  0  0  0
    5.7637    1.6944   -6.6987 C   0  0  0  0  0
    1.8388    1.5231   -2.6202 C   0  0  0  0  0
   -0.1126    1.4769   -0.6272 C   0  0  0  0  0
   -2.9774   -0.3805   -0.3212 C   0  0  0  0  0
    2.8485   -0.5707   -1.7019 C   0  0  0  0  0
    3.5488    0.9153   -5.8833 C   0  0  0  0  0
    5.0045    2.3414   -4.4223 C   0  0  0  0  0
    2.4259    1.5188   -5.0353 C   0  0  0  0  0
    4.2269    1.6551   -3.2959 C   0  0  0  0  0
   -3.4797   -4.5882   -0.9294 C   0  0  0  0  0
    4.7990    1.6512   -5.6957 N   0  0  0  0  0
    2.8040    1.5641   -3.6229 N   0  0  0  0  0
   -1.1117    1.4537    0.3925 N   0  0  0  0  0
    2.6037   -1.6341   -2.3830 O   0  0  0  0  0
    3.9416   -0.4019   -1.0451 O   0  0  0  0  0
   -3.5973    1.7229    1.0635 O   0  0  0  0  0
   -2.9656    2.0172   -1.3477 O   0  0  0  0  0
   -2.7683    1.3590   -0.0705 S   0  0  0  0  0
  1  2  1  0  0  0
  3  7  1  0  0  0
  4 14  1  0  0  0
  5 11  1  0  0  0
  6 15  1  0  0  0
  8 16  1  0  0  0
  9 17  1  0  0  0
 10 18  1  0  0  0
 12 13  1  0  0  0
 13 19  1  0  0  0
 15 25  1  0  0  0
 16 26  1  0  0  0
 17 27  1  0  0  0
 19 28  1  0  0  0
 20 22  1  0  0  0
 20 25  1  0  0  0
 21 23  1  0  0  0
 21 25  1  0  0  0
 22 26  1  0  0  0
 23 26  1  0  0  0
 24 14  1  0  0  0
 32 18  1  0  0  0
 32 27  1  0  0  0
  1  3  2  0  0  0
  2  6  2  0  0  0
  4 10  2  0  0  0
  5 14  2  0  0  0
  7 15  2  0  0  0
  8  9  2  0  0  0
 11 18  2  0  0  0
 12 17  2  0  0  0
 13 16  2  0  0  0
 19 29  2  0  0  0
 32 30  2  0  0  0
 32 31  2  0  0  0
M  CHG  1  28  -1
M  END
> <rmsd>
0.526025057

$$$$
ZINC04468778


 30 32  0  0  0  0  0  0  0  0999 V2000
   -4.2638   -1.2745    0.3243 C   0  0  0  0  0
   -3.2517   -0.4558   -0.1314 C   0  0  0  0  0
   -2.6713   -2.3025   -1.1623 C   0  0  0  0  0
    3.7518    0.0084    0.7520 C   0  0  0  0  0
    3.1565    0.4855   -0.3663 C   0  0  0  0  0
    1.1138    1.7928   -1.0903 C   0  0  0  0  0
    5.9254   -0.5459   -0.1219 C   0  0  0  0  0
    4.9407   -0.8223    0.7429 C   0  0  0  0  0
   -3.1113    0.9757    0.2485 C   0  0  0  0  0
    3.6320    0.0585   -1.7544 C   0  0  0  0  0
   -1.9617    1.7689   -0.3152 C   0  0  0  0  0
   -4.2569    4.8736    2.4168 C   0  0  0  0  0
    3.2389    0.2701    2.1660 C   0  0  0  0  0
    0.3910    2.3879    0.1536 C   0  0  0  0  0
    1.6742    2.0054    0.9253 C   0  0  0  0  0
   -4.6140    3.4154    2.1776 C   0  0  0  0  0
   -2.3375   -1.0437   -0.9836 N   0  0  0  0  0
   -3.9590    1.5362    1.0574 N   0  0  0  0  0
    2.0854    1.3172   -0.2830 N   0  0  0  0  0
   -1.9827   -3.1739   -1.9461 N   0  0  0  0  0
   -0.8570    1.7028    0.4871 N   0  0  0  0  0
    3.5579   -1.1771   -1.9738 O   0  0  0  0  0
   -4.2223    5.5940    1.3796 O   0  0  0  0  0
    0.8860    1.7011   -2.2737 O   0  0  0  0  0
    4.0307    1.0026   -2.4824 O   0  0  0  0  0
   -2.1288    2.3531   -1.3737 O   0  0  0  0  0
   -4.0464    5.1828    3.6230 O   0  0  0  0  0
   -3.6441    2.8823    1.2891 O   0  0  0  0  0
   -4.0740   -2.8458   -0.3361 S   0  0  0  0  0
    1.4874    0.7869    2.2460 S   0  0  0  0  0
  1 29  1  0  0  0
  2  9  1  0  0  0
  2 17  1  0  0  0
  3 20  1  0  0  0
  3 29  1  0  0  0
  4  8  1  0  0  0
  5 10  1  0  0  0
  5 19  1  0  0  0
  6 19  1  0  0  0
  9 11  1  0  0  0
 10 22  1  0  0  0
 11 21  1  0  0  0
 12 23  1  0  0  0
 13  4  1  0  0  0
 13 30  1  0  0  0
 14  6  1  0  0  0
 14 15  1  0  0  0
 14 21  1  0  0  0
 15 19  1  0  0  0
 15 30  1  0  0  0
 16 12  1  0  0  0
 16 28  1  0  0  0
 18 28  1  0  0  0
  1  2  2  0  0  0
  3 17  2  0  0  0
  4  5  2  0  0  0
  6 24  2  0  0  0
  7  8  2  0  0  0
  9 18  2  0  0  0
 10 25  2  0  0  0
 11 26  2  0  0  0
 12 27  2  0  0  0
M  CHG  2  22  -1  23  -1
M  END
> <rmsd>
0.349865824

$$$$
ZINC04468778


 30 32  0  0  0  0  0  0  0  0999 V2000
   -4.4872   -1.1663    0.4471 C   0  0  0  0  0
   -3.3983   -0.4806   -0.0493 C   0  0  0  0  0
   -2.9950   -2.4381   -0.9525 C   0  0  0  0  0
    3.6129   -0.6381    0.8795 C   0  0  0  0  0
    3.0720   -0.1797   -0.2738 C   0  0  0  0  0
    1.1692    1.2686   -1.1030 C   0  0  0  0  0
    5.7266   -1.4554    0.0672 C   0  0  0  0  0
    4.7156   -1.5784    0.9371 C   0  0  0  0  0
   -3.1215    0.9523    0.2390 C   0  0  0  0  0
    3.5104   -0.7403   -1.6261 C   0  0  0  0  0
   -1.8977    1.5924   -0.3620 C   0  0  0  0  0
   -3.8936    5.0757    2.1386 C   0  0  0  0  0
    3.1212   -0.2364    2.2680 C   0  0  0  0  0
    0.5018    2.0105    0.0918 C   0  0  0  0  0
    1.7381    1.5572    0.9007 C   0  0  0  0  0
   -4.3894    3.6463    1.9900 C   0  0  0  0  0
   -2.5414   -1.2085   -0.8517 N   0  0  0  0  0
   -3.9146    1.6436    1.0007 N   0  0  0  0  0
    2.0863    0.7551   -0.2560 N   0  0  0  0  0
   -2.3905   -3.4212   -1.6708 N   0  0  0  0  0
   -0.8084    1.4724    0.4551 N   0  0  0  0  0
    3.3177   -1.9746   -1.7661 O   0  0  0  0  0
   -3.7843    5.7202    1.0576 O   0  0  0  0  0
    0.9392    1.1223   -2.2805 O   0  0  0  0  0
    4.0023    0.1114   -2.4090 O   0  0  0  0  0
   -2.0023    2.1196   -1.4577 O   0  0  0  0  0
   -3.6598    5.4412    3.3246 O   0  0  0  0  0
   -3.4717    2.9653    1.1486 O   0  0  0  0  0
   -4.4477   -2.7884   -0.1085 S   0  0  0  0  0
    1.4277    0.4512    2.2951 S   0  0  0  0  0
  1 29  1  0  0  0
  2  9  1  0  0  0
  2 17  1  0  0  0
  3 20  1  0  0  0
  3 29  1  0  0  0
  4  8  1  0  0  0
  5 10  1  0  0  0
  5 19  1  0  0  0
  6 19  1  0  0  0
  9 11  1  0  0  0
 10 22  1  0  0  0
 11 21  1  0  0  0
 12 23  1  0  0  0
 13  4  1  0  0  0
 13 30  1  0  0  0
 14  6  1  0  0  0
 14 15  1  0  0  0
 14 21  1  0  0  0
 15 19  1  0  0  0
 15 30  1  0  0  0
 16 12  1  0  0  0
 16 28  1  0  0  0
 18 28  1  0  0  0
  1  2  2  0  0  0
  3 17  2  0  0  0
  4  5  2  0  0  0
  6 24  2  0  0  0
  7  8  2  0  0  0
  9 18  2  0  0  0
 10 25  2  0  0  0
 11 26  2  0  0  0
 12 27  2  0  0  0
M  CHG  2  22  -1  23  -1
M  END
> <rmsd>
0.101992138

$$$$
ZINC04468778


 30 32  0  0  0  0  0  0  0  0999 V2000
   -2.3647   -1.1047   -1.0033 C   0  0  0  0  0
   -3.2359   -0.4548   -0.1542 C   0  0  0  0  0
   -4.1892   -2.4299   -0.1560 C   0  0  0  0  0
    3.7637    0.0096    0.7593 C   0  0  0  0  0
    3.1722    0.4946   -0.3577 C   0  0  0  0  0
    1.1309    1.8053   -1.0794 C   0  0  0  0  0
    5.9413   -0.5359   -0.1105 C   0  0  0  0  0
    4.9535   -0.8198    0.7484 C   0  0  0  0  0
   -3.0984    0.9739    0.2370 C   0  0  0  0  0
    3.6535    0.0786   -1.7471 C   0  0  0  0  0
   -1.9474    1.7725   -0.3163 C   0  0  0  0  0
   -4.2561    4.8541    2.4304 C   0  0  0  0  0
    3.2453    0.2601    2.1733 C   0  0  0  0  0
    0.4029    2.3902    0.1661 C   0  0  0  0  0
    1.6835    2.0032    0.9398 C   0  0  0  0  0
   -4.6108    3.3975    2.1788 C   0  0  0  0  0
   -4.2829   -1.2130    0.3322 N   0  0  0  0  0
   -3.9497    1.5275    1.0470 N   0  0  0  0  0
    2.1000    1.3246   -0.2721 N   0  0  0  0  0
   -5.0618   -3.4353    0.1195 N   0  0  0  0  0
   -0.8457    1.7014    0.4897 N   0  0  0  0  0
    3.5814   -1.1554   -1.9761 O   0  0  0  0  0
   -4.2183    5.5824    1.3989 O   0  0  0  0  0
    0.9077    1.7224   -2.2644 O   0  0  0  0  0
    4.0539    1.0286   -2.4664 O   0  0  0  0  0
   -2.1111    2.3645   -1.3709 O   0  0  0  0  0
   -4.0505    5.1544    3.6397 O   0  0  0  0  0
   -3.6371    2.8721    1.2900 O   0  0  0  0  0
   -2.8662   -2.7322   -1.2065 S   0  0  0  0  0
    1.4929    0.7746    2.2505 S   0  0  0  0  0
  1 29  1  0  0  0
  2  9  1  0  0  0
  2 17  1  0  0  0
  3 20  1  0  0  0
  3 29  1  0  0  0
  4  8  1  0  0  0
  5 10  1  0  0  0
  5 19  1  0  0  0
  6 19  1  0  0  0
  9 11  1  0  0  0
 10 22  1  0  0  0
 11 21  1  0  0  0
 12 23  1  0  0  0
 13  4  1  0  0  0
 13 30  1  0  0  0
 14  6  1  0  0  0
 14 15  1  0  0  0
 14 21  1  0  0  0
 15 19  1  0  0  0
 15 30  1  0  0  0
 16 12  1  0  0  0
 16 28  1  0  0  0
 18 28  1  0  0  0
  1  2  2  0  0  0
  3 17  2  0  0  0
  4  5  2  0  0  0
  6 24  2  0  0  0
  7  8  2  0  0  0
  9 18  2  0  0  0
 10 25  2  0  0  0
 11 26  2  0  0  0
 12 27  2  0  0  0
M  CHG  2  22  -1  23  -1
M  END
> <rmsd>
0.309362531

$$$$
ZINC04468778


 30 32  0  0  0  0  0  0  0  0999 V2000
   -2.5744   -1.2688   -0.8673 C   0  0  0  0  0
   -3.3820   -0.4838   -0.0711 C   0  0  0  0  0
   -4.5214   -2.3540    0.0460 C   0  0  0  0  0
    3.6263   -0.6351    0.8808 C   0  0  0  0  0
    3.0886   -0.1700   -0.2712 C   0  0  0  0  0
    1.1861    1.2805   -1.0973 C   0  0  0  0  0
    5.7443   -1.4433    0.0704 C   0  0  0  0  0
    4.7305   -1.5739    0.9359 C   0  0  0  0  0
   -3.1086    0.9477    0.2278 C   0  0  0  0  0
    3.5326   -0.7207   -1.6257 C   0  0  0  0  0
   -1.8839    1.5939   -0.3647 C   0  0  0  0  0
   -3.8946    5.0569    2.1523 C   0  0  0  0  0
    3.1291   -0.2436    2.2702 C   0  0  0  0  0
    0.5132    2.0133    0.1002 C   0  0  0  0  0
    1.7476    1.5567    0.9103 C   0  0  0  0  0
   -4.3874    3.6277    1.9924 C   0  0  0  0  0
   -4.4991   -1.1043    0.4531 N   0  0  0  0  0
   -3.9056    1.6325    0.9913 N   0  0  0  0  0
    2.1011    0.7630   -0.2506 N   0  0  0  0  0
   -5.4881   -3.2506    0.3775 N   0  0  0  0  0
   -0.7972    1.4704    0.4553 N   0  0  0  0  0
    3.3426   -1.9544   -1.7746 O   0  0  0  0  0
   -3.7828    5.7088    1.0759 O   0  0  0  0  0
    0.9604    1.1417   -2.2765 O   0  0  0  0  0
    4.0257    0.1370   -2.4012 O   0  0  0  0  0
   -1.9857    2.1283   -1.4572 O   0  0  0  0  0
   -3.6656    5.4149    3.3415 O   0  0  0  0  0
   -3.4656    2.9539    1.1495 O   0  0  0  0  0
   -3.2299   -2.8504   -0.9691 S   0  0  0  0  0
    1.4343    0.4409    2.2961 S   0  0  0  0  0
  1 29  1  0  0  0
  2  9  1  0  0  0
  2 17  1  0  0  0
  3 20  1  0  0  0
  3 29  1  0  0  0
  4  8  1  0  0  0
  5 10  1  0  0  0
  5 19  1  0  0  0
  6 19  1  0  0  0
  9 11  1  0  0  0
 10 22  1  0  0  0
 11 21  1  0  0  0
 12 23  1  0  0  0
 13  4  1  0  0  0
 13 30  1  0  0  0
 14  6  1  0  0  0
 14 15  1  0  0  0
 14 21  1  0  0  0
 15 19  1  0  0  0
 15 30  1  0  0  0
 16 12  1  0  0  0
 16 28  1  0  0  0
 18 28  1  0  0  0
  1  2  2  0  0  0
  3 17  2  0  0  0
  4  5  2  0  0  0
  6 24  2  0  0  0
  7  8  2  0  0  0
  9 18  2  0  0  0
 10 25  2  0  0  0
 11 26  2  0  0  0
 12 27  2  0  0  0
M  CHG  2  22  -1  23  -1
M  END
> <rmsd>
0.0586174279

$$$$
ZINC13704177


 30 32  0  0  0  0  0  0  0  0999 V2000
   -4.6534   -1.0798    0.5410 C   0  0  0  0  0
   -3.5305   -0.4745    0.0169 C   0  0  0  0  0
   -3.2422   -2.4827   -0.8164 C   0  0  0  0  0
    4.3646    0.3351    0.5710 C   0  0  0  0  0
    3.4499    0.1689   -0.4142 C   0  0  0  0  0
    1.1428    0.9701   -1.0976 C   0  0  0  0  0
    5.8205   -1.5293    0.1245 C   0  0  0  0  0
    5.6825   -0.2708    0.5612 C   0  0  0  0  0
   -3.1722    0.9500    0.2526 C   0  0  0  0  0
    3.8005   -0.5802   -1.6988 C   0  0  0  0  0
   -1.9177    1.4984   -0.3749 C   0  0  0  0  0
   -3.7023    5.1755    2.0049 C   0  0  0  0  0
    4.1262    1.1824    1.8199 C   0  0  0  0  0
    0.5037    1.7971    0.0559 C   0  0  0  0  0
    1.6430    1.2235    0.9264 C   0  0  0  0  0
   -4.2782    3.7720    1.9094 C   0  0  0  0  0
   -2.7198   -1.2776   -0.7615 N   0  0  0  0  0
   -3.9216    1.7116    0.9914 N   0  0  0  0  0
    2.2114    0.7212   -0.3107 N   0  0  0  0  0
   -2.6974   -3.5233   -1.5008 N   0  0  0  0  0
   -0.8314    1.3471    0.4421 N   0  0  0  0  0
    4.7438   -0.0734   -2.3576 O   0  0  0  0  0
   -3.5628    5.7739    0.9010 O   0  0  0  0  0
    0.8658    0.7058   -2.2439 O   0  0  0  0  0
    3.0968   -1.5987   -1.9174 O   0  0  0  0  0
   -1.9983    1.9911   -1.4887 O   0  0  0  0  0
   -3.4424    5.5696    3.1762 O   0  0  0  0  0
   -3.4044    3.0107    1.0901 O   0  0  0  0  0
   -4.7077   -2.7204    0.0442 S   0  0  0  0  0
    2.7911    2.4175    1.6438 S   0  0  0  0  0
  1 29  1  0  0  0
  2  9  1  0  0  0
  2 17  1  0  0  0
  3 20  1  0  0  0
  3 29  1  0  0  0
  4  8  1  0  0  0
  5 10  1  0  0  0
  5 19  1  0  0  0
  6 19  1  0  0  0
  9 11  1  0  0  0
 10 22  1  0  0  0
 11 21  1  0  0  0
 12 23  1  0  0  0
 13  4  1  0  0  0
 13 30  1  0  0  0
 14  6  1  0  0  0
 14 15  1  0  0  0
 14 21  1  0  0  0
 15 19  1  0  0  0
 15 30  1  0  0  0
 16 12  1  0  0  0
 16 28  1  0  0  0
 18 28  1  0  0  0
  1  2  2  0  0  0
  3 17  2  0  0  0
  4  5  2  0  0  0
  6 24  2  0  0  0
  7  8  2  0  0  0
  9 18  2  0  0  0
 10 25  2  0  0  0
 11 26  2  0  0  0
 12 27  2  0  0  0
M  CHG  2  22  -1  23  -1
M  END
> <rmsd>
0.154877245

$$$$
ZINC13704177


 30 32  0  0  0  0  0  0  0  0999 V2000
   -2.7568   -1.3371   -0.7747 C   0  0  0  0  0
   -3.5147   -0.4799   -0.0047 C   0  0  0  0  0
   -4.7560   -2.2780    0.1846 C   0  0  0  0  0
    4.3769    0.3429    0.5796 C   0  0  0  0  0
    3.4658    0.1808   -0.4096 C   0  0  0  0  0
    1.1591    0.9813   -1.0955 C   0  0  0  0  0
    5.8382   -1.5157    0.1263 C   0  0  0  0  0
    5.6961   -0.2602    0.5702 C   0  0  0  0  0
   -3.1602    0.9440    0.2407 C   0  0  0  0  0
    3.8220   -0.5597   -1.6976 C   0  0  0  0  0
   -1.9048    1.4987   -0.3793 C   0  0  0  0  0
   -3.7047    5.1576    2.0170 C   0  0  0  0  0
    4.1328    1.1821    1.8328 C   0  0  0  0  0
    0.5146    1.7999    0.0610 C   0  0  0  0  0
    1.6524    1.2234    0.9316 C   0  0  0  0  0
   -4.2774    3.7535    1.9111 C   0  0  0  0  0
   -4.6617   -1.0176    0.5459 N   0  0  0  0  0
   -3.9134    1.6995    0.9818 N   0  0  0  0  0
    2.2257    0.7299   -0.3067 N   0  0  0  0  0
   -5.7692   -3.1065    0.5523 N   0  0  0  0  0
   -0.8207    1.3448    0.4402 N   0  0  0  0  0
    4.7663   -0.0470   -2.3502 O   0  0  0  0  0
   -3.5629    5.7630    0.9173 O   0  0  0  0  0
    0.8863    0.7234   -2.2442 O   0  0  0  0  0
    3.1211   -1.5784   -1.9246 O   0  0  0  0  0
   -1.9829    1.9981   -1.4903 O   0  0  0  0  0
   -3.4494    5.5451    3.1915 O   0  0  0  0  0
   -3.3994    2.9990    1.0900 O   0  0  0  0  0
   -3.4999   -2.8822   -0.8164 S   0  0  0  0  0
    2.7957    2.4154    1.6599 S   0  0  0  0  0
  1 29  1  0  0  0
  2  9  1  0  0  0
  2 17  1  0  0  0
  3 20  1  0  0  0
  3 29  1  0  0  0
  4  8  1  0  0  0
  5 10  1  0  0  0
  5 19  1  0  0  0
  6 19  1  0  0  0
  9 11  1  0  0  0
 10 22  1  0  0  0
 11 21  1  0  0  0
 12 23  1  0  0  0
 13  4  1  0  0  0
 13 30  1  0  0  0
 14  6  1  0  0  0
 14 15  1  0  0  0
 14 21  1  0  0  0
 15 19  1  0  0  0
 15 30  1  0  0  0
 16 12  1  0  0  0
 16 28  1  0  0  0
 18 28  1  0  0  0
  1  2  2  0  0  0
  3 17  2  0  0  0
  4  5  2  0  0  0
  6 24  2  0  0  0
  7  8  2  0  0  0
  9 18  2  0  0  0
 10 25  2  0  0  0
 11 26  2  0  0  0
 12 27  2  0  0  0
M  CHG  2  22  -1  23  -1
M  END
> <rmsd>
0.180569604

$$$$
ZINC14040649


 32 34  0  0  0  0  0  0  0  0999 V2000
   -2.3974   -2.7045   -0.2989 C   0  0  0  0  0
   -5.7751    5.8820    1.6279 C   0  0  0  0  0
   -3.4363   -2.6882    0.6317 C   0  0  0  0  0
   -2.4908   -1.9402   -1.4620 C   0  0  0  0  0
   -6.9537    5.5745    0.9485 C   0  0  0  0  0
   -4.6872    5.0111    1.5669 C   0  0  0  0  0
    1.1497   -1.2899    1.2395 C   0  0  0  0  0
    2.0665   -1.2230    0.1904 C   0  0  0  0  0
   -4.5686   -1.9076    0.3991 C   0  0  0  0  0
   -3.6231   -1.1596   -1.6946 C   0  0  0  0  0
   -7.0447    4.3958    0.2080 C   0  0  0  0  0
    0.8884    0.6807   -0.7179 C   0  0  0  0  0
   -4.7781    3.8325    0.8264 C   0  0  0  0  0
    0.1022   -0.3715    1.3099 C   0  0  0  0  0
   -0.0284    0.6139    0.3312 C   0  0  0  0  0
    1.9359   -0.2377   -0.7882 C   0  0  0  0  0
   -4.6621   -1.1433   -0.7641 C   0  0  0  0  0
   -5.9568    3.5248    0.1470 C   0  0  0  0  0
   -3.6306    2.9373    0.7760 C   0  0  0  0  0
   -1.1712    2.8916    0.0149 C   0  0  0  0  0
   -0.8661   -0.4678    2.4440 C   0  0  0  0  0
   -6.4496    0.1296    0.1527 C   0  0  0  0  0
   -7.0869    1.4607   -0.1967 C   0  0  0  0  0
   -1.0874    1.5555    0.3851 N   0  0  0  0  0
   -2.4346    3.4755    0.2394 N   0  0  0  0  0
    2.8691   -0.1701   -1.8563 N   0  0  0  0  0
    3.8037   -1.0062   -1.9011 O   0  0  0  0  0
   -3.7414    1.7618    1.1599 O   0  0  0  0  0
    2.7335    0.7236   -2.7267 O   0  0  0  0  0
   -5.7743   -0.3765   -0.9923 O   0  0  0  0  0
   -6.0657    2.3785   -0.5820 O   0  0  0  0  0
    0.0242    3.8918   -0.6075 S   0  0  0  0  0
  1  3  1  0  0  0
  2  5  1  0  0  0
  4 10  1  0  0  0
  6 13  1  0  0  0
  7 14  1  0  0  0
  8 16  1  0  0  0
  9 17  1  0  0  0
 11 18  1  0  0  0
 12 15  1  0  0  0
 13 19  1  0  0  0
 15 24  1  0  0  0
 16 26  1  0  0  0
 17 30  1  0  0  0
 18 31  1  0  0  0
 19 25  1  0  0  0
 20 24  1  0  0  0
 20 25  1  0  0  0
 21 14  1  0  0  0
 22 23  1  0  0  0
 22 30  1  0  0  0
 23 31  1  0  0  0
 26 27  1  0  0  0
  1  4  2  0  0  0
  2  6  2  0  0  0
  3  9  2  0  0  0
  5 11  2  0  0  0
  7  8  2  0  0  0
 10 17  2  0  0  0
 12 16  2  0  0  0
 13 18  2  0  0  0
 14 15  2  0  0  0
 19 28  2  0  0  0
 20 32  2  0  0  0
 26 29  2  0  0  0
M  CHG  2  26   1  27  -1
M  END
> <rmsd>
0.387074739

$$$$
ZINC32962183


 30 32  0  0  0  0  0  0  0  0999 V2000
    1.0293    2.8909   -2.1799 C   0  0  0  0  0
   -0.0319    2.7714   -1.2826 C   0  0  0  0  0
   -2.4310   -2.2518   -1.8007 C   0  0  0  0  0
   -2.8673   -3.1015   -0.7841 C   0  0  0  0  0
    0.9979    0.8062   -0.3263 C   0  0  0  0  0
   -3.2122   -1.1961    0.6606 C   0  0  0  0  0
    2.0591    0.9256   -1.2237 C   0  0  0  0  0
    2.0748    1.9680   -2.1505 C   0  0  0  0  0
   -0.0477    1.7291   -0.3558 C   0  0  0  0  0
   -2.3852   -0.8742   -1.5865 C   0  0  0  0  0
   -2.7758   -0.3463   -0.3559 C   0  0  0  0  0
   -3.2579   -2.5736    0.4464 C   0  0  0  0  0
    3.1520   -0.0635   -1.1714 C   0  0  0  0  0
    2.8366    4.5526   -5.1793 C   0  0  0  0  0
    4.1102    4.8621   -4.3899 C   0  0  0  0  0
    2.9051    3.2873   -6.0370 C   0  0  0  0  0
    4.0989    4.3974   -2.9338 C   0  0  0  0  0
    2.2870    2.0411   -5.4030 C   0  0  0  0  0
    4.3215    2.8989   -2.7419 C   0  0  0  0  0
    3.1496    1.3773   -4.3321 C   0  0  0  0  0
   -1.5769   -0.6927   -3.8158 C   0  0  0  0  0
    3.1295    2.1053   -3.0591 N   0  0  0  0  0
   -1.1341    1.6070    0.5623 N   0  0  0  0  0
    3.0562   -1.1268   -1.8891 O   0  0  0  0  0
    4.1614    0.1724   -0.4097 O   0  0  0  0  0
   -3.6856    1.6722    0.9946 O   0  0  0  0  0
   -2.8526    2.0681   -1.3396 O   0  0  0  0  0
   -1.9556   -0.0631   -2.5936 O   0  0  0  0  0
   -2.7270    1.3979   -0.0596 S   0  0  0  0  0
   -3.7968   -3.6225    1.7000 Cl  0  0  0  0  0
  1  8  1  0  0  0
  2  9  1  0  0  0
  3 10  1  0  0  0
  4 12  1  0  0  0
  5  7  1  0  0  0
  6 11  1  0  0  0
  7 13  1  0  0  0
  8 22  1  0  0  0
  9 23  1  0  0  0
 10 28  1  0  0  0
 12 30  1  0  0  0
 13 24  1  0  0  0
 14 15  1  0  0  0
 14 16  1  0  0  0
 15 17  1  0  0  0
 16 18  1  0  0  0
 17 19  1  0  0  0
 18 20  1  0  0  0
 19 22  1  0  0  0
 20 22  1  0  0  0
 21 28  1  0  0  0
 29 11  1  0  0  0
 29 23  1  0  0  0
  1  2  2  0  0  0
  3  4  2  0  0  0
  5  9  2  0  0  0
  6 12  2  0  0  0
  7  8  2  0  0  0
 10 11  2  0  0  0
 13 25  2  0  0  0
 29 26  2  0  0  0
 29 27  2  0  0  0
M  CHG  1  24  -1
M  END
> <rmsd>
0.701349497

$$$$
ZINC32962183


 30 32  0  0  0  0  0  0  0  0999 V2000
    0.8769    2.5331   -2.5624 C   0  0  0  0  0
   -0.1007    2.5068   -1.5679 C   0  0  0  0  0
   -2.9169   -2.3187   -1.7679 C   0  0  0  0  0
   -3.3191   -3.1206   -0.6997 C   0  0  0  0  0
    0.8609    0.4776   -0.6763 C   0  0  0  0  0
   -3.3785   -1.1784    0.7359 C   0  0  0  0  0
    1.8385    0.5039   -1.6709 C   0  0  0  0  0
    1.8465    1.5317   -2.6140 C   0  0  0  0  0
   -0.1088    1.4791   -0.6248 C   0  0  0  0  0
   -2.7453   -0.9467   -1.5841 C   0  0  0  0  0
   -2.9762   -0.3764   -0.3323 C   0  0  0  0  0
   -3.5499   -2.5503    0.5521 C   0  0  0  0  0
    2.8522   -0.5671   -1.7029 C   0  0  0  0  0
    2.5149    4.0156   -5.7473 C   0  0  0  0  0
    3.8775    4.2331   -5.0861 C   0  0  0  0  0
    2.4046    2.7395   -6.5844 C   0  0  0  0  0
    3.9682    3.7866   -3.6270 C   0  0  0  0  0
    1.7553    1.5525   -5.8729 C   0  0  0  0  0
    4.0921    2.2775   -3.4295 C   0  0  0  0  0
    2.6617    0.8349   -4.8752 C   0  0  0  0  0
   -2.1399   -0.8533   -3.8821 C   0  0  0  0  0
    2.8180    1.5761   -3.6194 N   0  0  0  0  0
   -1.1098    1.4525    0.3929 N   0  0  0  0  0
    2.6075   -1.6274   -2.3890 O   0  0  0  0  0
    3.9441   -0.4025   -1.0432 O   0  0  0  0  0
   -3.5963    1.7216    1.0603 O   0  0  0  0  0
   -2.9598    2.0257   -1.3483 O   0  0  0  0  0
   -2.3518   -0.1826   -2.6415 O   0  0  0  0  0
   -2.7656    1.3617   -0.0736 S   0  0  0  0  0
   -4.0469   -3.5400    1.8694 Cl  0  0  0  0  0
  1  8  1  0  0  0
  2  9  1  0  0  0
  3 10  1  0  0  0
  4 12  1  0  0  0
  5  7  1  0  0  0
  6 11  1  0  0  0
  7 13  1  0  0  0
  8 22  1  0  0  0
  9 23  1  0  0  0
 10 28  1  0  0  0
 12 30  1  0  0  0
 13 24  1  0  0  0
 14 15  1  0  0  0
 14 16  1  0  0  0
 15 17  1  0  0  0
 16 18  1  0  0  0
 17 19  1  0  0  0
 18 20  1  0  0  0
 19 22  1  0  0  0
 20 22  1  0  0  0
 21 28  1  0  0  0
 29 11  1  0  0  0
 29 23  1  0  0  0
  1  2  2  0  0  0
  3  4  2  0  0  0
  5  9  2  0  0  0
  6 12  2  0  0  0
  7  8  2  0  0  0
 10 11  2  0  0  0
 13 25  2  0  0  0
 29 26  2  0  0  0
 29 27  2  0  0  0
M  CHG  1  24  -1
M  END
> <rmsd>
0.521130741

$$$$
ZINC04654838


 30 33  0  0  0  0  0  0  0  0999 V2000
   -4.4873   -1.1679    0.4475 C   0  0  0  0  0
   -3.4007   -0.4798   -0.0504 C   0  0  0  0  0
   -2.9980   -2.4346   -0.9596 C   0  0  0  0  0
    3.0779   -0.1615   -0.2850 C   0  0  0  0  0
    3.6267   -0.6226    0.8641 C   0  0  0  0  0
    1.1601    1.2791   -1.1139 C   0  0  0  0  0
   -3.1245    0.9527    0.2406 C   0  0  0  0  0
    3.5185   -0.7401   -1.6246 C   0  0  0  0  0
   -1.9031    1.5956   -0.3623 C   0  0  0  0  0
    3.1236   -0.2301    2.2515 C   0  0  0  0  0
    5.3584   -3.5912    2.0055 C   0  0  0  0  0
    4.3189   -3.0228    1.0722 C   0  0  0  0  0
    5.6346   -2.4171    2.9160 C   0  0  0  0  0
    4.7683   -1.5814    0.9258 C   0  0  0  0  0
    0.4972    2.0152    0.0855 C   0  0  0  0  0
    1.7361    1.5612    0.8878 C   0  0  0  0  0
   -4.3901    3.6412    2.0020 C   0  0  0  0  0
   -2.5453   -1.2047   -0.8572 N   0  0  0  0  0
   -3.9161    1.6413    1.0064 N   0  0  0  0  0
    2.0856    0.7652   -0.2749 N   0  0  0  0  0
   -2.3945   -3.4153   -1.6821 N   0  0  0  0  0
   -0.8112    1.4747    0.4512 N   0  0  0  0  0
    2.8503   -1.7335   -2.0132 O   0  0  0  0  0
    0.9253    1.1344   -2.2907 O   0  0  0  0  0
    4.4904   -0.1455   -2.1595 O   0  0  0  0  0
   -2.0115    2.1255   -1.4564 O   0  0  0  0  0
    5.5125   -1.2432    2.1023 O   0  0  0  0  0
   -3.4742    2.9631    1.1562 O   0  0  0  0  0
   -4.4477   -2.7885   -0.1123 S   0  0  0  0  0
    1.4293    0.4480    2.2782 S   0  0  0  0  0
  1 29  1  0  0  0
  2  7  1  0  0  0
  2 18  1  0  0  0
  3 21  1  0  0  0
  3 29  1  0  0  0
  4  8  1  0  0  0
  4 20  1  0  0  0
  6 20  1  0  0  0
  7  9  1  0  0  0
  8 23  1  0  0  0
  9 22  1  0  0  0
 10  5  1  0  0  0
 10 30  1  0  0  0
 11 12  1  0  0  0
 11 13  1  0  0  0
 12 14  1  0  0  0
 13 27  1  0  0  0
 14  5  1  0  0  0
 14 27  1  0  0  0
 15  6  1  0  0  0
 15 16  1  0  0  0
 15 22  1  0  0  0
 16 20  1  0  0  0
 16 30  1  0  0  0
 17 28  1  0  0  0
 19 28  1  0  0  0
  1  2  2  0  0  0
  3 18  2  0  0  0
  4  5  2  0  0  0
  6 24  2  0  0  0
  7 19  2  0  0  0
  8 25  2  0  0  0
  9 26  2  0  0  0
M  CHG  1  23  -1
M  END
> <rmsd>
0.103014268

$$$$
ZINC04654838


 30 33  0  0  0  0  0  0  0  0999 V2000
   -4.2090   -1.2865    0.2906 C   0  0  0  0  0
   -3.1738   -0.4829   -0.1393 C   0  0  0  0  0
   -2.5636   -2.3534   -1.1082 C   0  0  0  0  0
    3.2526    0.4276   -0.1198 C   0  0  0  0  0
    3.8024   -0.0301    1.0302 C   0  0  0  0  0
    1.2398    1.7231   -0.9629 C   0  0  0  0  0
   -3.0399    0.9551    0.2174 C   0  0  0  0  0
    3.7890   -0.0519   -1.4636 C   0  0  0  0  0
   -1.8630    1.7303   -0.3141 C   0  0  0  0  0
    3.2193    0.2567    2.4121 C   0  0  0  0  0
    5.7594   -2.8760    2.1189 C   0  0  0  0  0
    4.7042   -2.3648    1.1703 C   0  0  0  0  0
    5.8962   -1.7212    3.0840 C   0  0  0  0  0
    5.0243   -0.8838    1.0970 C   0  0  0  0  0
    0.4724    2.3453    0.2387 C   0  0  0  0  0
    1.7201    1.9715    1.0683 C   0  0  0  0  0
   -4.6048    3.4420    2.0337 C   0  0  0  0  0
   -2.2291   -1.0931   -0.9412 N   0  0  0  0  0
   -3.9165    1.5367    0.9793 N   0  0  0  0  0
    2.1798    1.2599   -0.1106 N   0  0  0  0  0
   -1.8489   -3.2444   -1.8454 N   0  0  0  0  0
   -0.7925    1.6742    0.5341 N   0  0  0  0  0
    3.2280   -1.0842   -1.9151 O   0  0  0  0  0
    1.0589    1.6076   -2.1523 O   0  0  0  0  0
    4.7198    0.6498   -1.9384 O   0  0  0  0  0
   -1.9827    2.2939   -1.3901 O   0  0  0  0  0
    5.6945   -0.5298    2.3126 O   0  0  0  0  0
   -3.6027    2.8854    1.1968 O   0  0  0  0  0
   -4.0024   -2.8719   -0.3299 S   0  0  0  0  0
    1.4700    0.7775    2.4020 S   0  0  0  0  0
  1 29  1  0  0  0
  2  7  1  0  0  0
  2 18  1  0  0  0
  3 21  1  0  0  0
  3 29  1  0  0  0
  4  8  1  0  0  0
  4 20  1  0  0  0
  6 20  1  0  0  0
  7  9  1  0  0  0
  8 23  1  0  0  0
  9 22  1  0  0  0
 10  5  1  0  0  0
 10 30  1  0  0  0
 11 12  1  0  0  0
 11 13  1  0  0  0
 12 14  1  0  0  0
 13 27  1  0  0  0
 14  5  1  0  0  0
 14 27  1  0  0  0
 15  6  1  0  0  0
 15 16  1  0  0  0
 15 22  1  0  0  0
 16 20  1  0  0  0
 16 30  1  0  0  0
 17 28  1  0  0  0
 19 28  1  0  0  0
  1  2  2  0  0  0
  3 18  2  0  0  0
  4  5  2  0  0  0
  6 24  2  0  0  0
  7 19  2  0  0  0
  8 25  2  0  0  0
  9 26  2  0  0  0
M  CHG  1  23  -1
M  END
> <rmsd>
0.40255928

$$$$
ZINC04654838


 30 33  0  0  0  0  0  0  0  0999 V2000
   -2.2556   -1.1549   -0.9591 C   0  0  0  0  0
   -3.1565   -0.4825   -0.1602 C   0  0  0  0  0
   -4.1214   -2.4520   -0.1599 C   0  0  0  0  0
    3.2684    0.4377   -0.1117 C   0  0  0  0  0
    3.8148   -0.0268    1.0371 C   0  0  0  0  0
    1.2566    1.7357   -0.9533 C   0  0  0  0  0
   -3.0261    0.9533    0.2065 C   0  0  0  0  0
    3.8104   -0.0321   -1.4567 C   0  0  0  0  0
   -1.8485    1.7338   -0.3156 C   0  0  0  0  0
    3.2263    0.2498    2.4188 C   0  0  0  0  0
    5.7723   -2.8769    2.1138 C   0  0  0  0  0
    4.7197   -2.3610    1.1650 C   0  0  0  0  0
    5.9039   -1.7284    3.0871 C   0  0  0  0  0
    5.0378   -0.8791    1.1026 C   0  0  0  0  0
    0.4840    2.3487    0.2496 C   0  0  0  0  0
    1.7292    1.9713    1.0812 C   0  0  0  0  0
   -4.6013    3.4256    2.0338 C   0  0  0  0  0
   -4.2273   -1.2246    0.2987 N   0  0  0  0  0
   -3.9063    1.5284    0.9692 N   0  0  0  0  0
    2.1942    1.2682   -0.1007 N   0  0  0  0  0
   -5.0109   -3.4465    0.1006 N   0  0  0  0  0
   -0.7810    1.6737    0.5361 N   0  0  0  0  0
    3.2525   -1.0622   -1.9172 O   0  0  0  0  0
    1.0801    1.6278   -2.1441 O   0  0  0  0  0
    4.7417    0.6743   -1.9235 O   0  0  0  0  0
   -1.9653    2.3044   -1.3882 O   0  0  0  0  0
    5.7031   -0.5322    2.3230 O   0  0  0  0  0
   -3.5954    2.8762    1.1968 O   0  0  0  0  0
   -2.7585   -2.7836   -1.1487 S   0  0  0  0  0
    1.4763    0.7681    2.4060 S   0  0  0  0  0
  1 29  1  0  0  0
  2  7  1  0  0  0
  2 18  1  0  0  0
  3 21  1  0  0  0
  3 29  1  0  0  0
  4  8  1  0  0  0
  4 20  1  0  0  0
  6 20  1  0  0  0
  7  9  1  0  0  0
  8 23  1  0  0  0
  9 22  1  0  0  0
 10  5  1  0  0  0
 10 30  1  0  0  0
 11 12  1  0  0  0
 11 13  1  0  0  0
 12 14  1  0  0  0
 13 27  1  0  0  0
 14  5  1  0  0  0
 14 27  1  0  0  0
 15  6  1  0  0  0
 15 16  1  0  0  0
 15 22  1  0  0  0
 16 20  1  0  0  0
 16 30  1  0  0  0
 17 28  1  0  0  0
 19 28  1  0  0  0
  1  2  2  0  0  0
  3 18  2  0  0  0
  4  5  2  0  0  0
  6 24  2  0  0  0
  7 19  2  0  0  0
  8 25  2  0  0  0
  9 26  2  0  0  0
M  CHG  1  23  -1
M  END
> <rmsd>
0.359766155

$$$$
ZINC04654838


 30 33  0  0  0  0  0  0  0  0999 V2000
   -2.5778   -1.2644   -0.8731 C   0  0  0  0  0
   -3.3838   -0.4823   -0.0726 C   0  0  0  0  0
   -4.5211   -2.3539    0.0429 C   0  0  0  0  0
    3.0950   -0.1514   -0.2825 C   0  0  0  0  0
    3.6406   -0.6193    0.8654 C   0  0  0  0  0
    1.1776    1.2916   -1.1083 C   0  0  0  0  0
   -3.1110    0.9487    0.2291 C   0  0  0  0  0
    3.5413   -0.7201   -1.6244 C   0  0  0  0  0
   -1.8888    1.5977   -0.3652 C   0  0  0  0  0
    3.1321   -0.2370    2.2537 C   0  0  0  0  0
    5.3735   -3.5926    1.9926 C   0  0  0  0  0
    4.3363   -3.0197    1.0596 C   0  0  0  0  0
    5.6445   -2.4243    2.9120 C   0  0  0  0  0
    4.7837   -1.5765    0.9246 C   0  0  0  0  0
    0.5093    2.0184    0.0937 C   0  0  0  0  0
    1.7462    1.5611    0.8973 C   0  0  0  0  0
   -4.3874    3.6230    2.0043 C   0  0  0  0  0
   -4.4987   -1.1052    0.4532 N   0  0  0  0  0
   -3.9066    1.6307    0.9968 N   0  0  0  0  0
    2.1010    0.7736   -0.2695 N   0  0  0  0  0
   -5.4858   -3.2523    0.3751 N   0  0  0  0  0
   -0.7994    1.4733    0.4512 N   0  0  0  0  0
    2.8761   -1.7119   -2.0221 O   0  0  0  0  0
    0.9471    1.1544   -2.2868 O   0  0  0  0  0
    4.5140   -0.1203   -2.1519 O   0  0  0  0  0
   -1.9943    2.1348   -1.4560 O   0  0  0  0  0
    5.5232   -1.2450    2.1059 O   0  0  0  0  0
   -3.4674    2.9522    1.1571 O   0  0  0  0  0
   -3.2319   -2.8464   -0.9771 S   0  0  0  0  0
    1.4365    0.4380    2.2790 S   0  0  0  0  0
  1 29  1  0  0  0
  2  7  1  0  0  0
  2 18  1  0  0  0
  3 21  1  0  0  0
  3 29  1  0  0  0
  4  8  1  0  0  0
  4 20  1  0  0  0
  6 20  1  0  0  0
  7  9  1  0  0  0
  8 23  1  0  0  0
  9 22  1  0  0  0
 10  5  1  0  0  0
 10 30  1  0  0  0
 11 12  1  0  0  0
 11 13  1  0  0  0
 12 14  1  0  0  0
 13 27  1  0  0  0
 14  5  1  0  0  0
 14 27  1  0  0  0
 15  6  1  0  0  0
 15 16  1  0  0  0
 15 22  1  0  0  0
 16 20  1  0  0  0
 16 30  1  0  0  0
 17 28  1  0  0  0
 19 28  1  0  0  0
  1  2  2  0  0  0
  3 18  2  0  0  0
  4  5  2  0  0  0
  6 24  2  0  0  0
  7 19  2  0  0  0
  8 25  2  0  0  0
  9 26  2  0  0  0
M  CHG  1  23  -1
M  END
> <rmsd>
0.0606447197

$$$$
ZINC11616461


 30 33  0  0  0  0  0  0  0  0999 V2000
   -4.4565   -1.1951    0.4299 C   0  0  0  0  0
   -3.4032   -0.4580   -0.0695 C   0  0  0  0  0
   -2.9630   -2.3694   -1.0509 C   0  0  0  0  0
    3.4838    0.8351   -0.5816 C   0  0  0  0  0
    4.4109    1.0111    0.3893 C   0  0  0  0  0
    1.0998    1.4658   -1.1619 C   0  0  0  0  0
   -3.1638    0.9724    0.2619 C   0  0  0  0  0
    3.8853    0.2339   -1.9231 C   0  0  0  0  0
   -1.9771    1.6718   -0.3471 C   0  0  0  0  0
    4.1249    1.7354    1.7048 C   0  0  0  0  0
    7.6326    0.0536    1.7378 C   0  0  0  0  0
    6.2031   -0.3560    1.4861 C   0  0  0  0  0
    7.5940    1.5304    1.4191 C   0  0  0  0  0
    5.8175    0.5197    0.3089 C   0  0  0  0  0
    0.4193    2.1512    0.0598 C   0  0  0  0  0
    1.6250    1.6198    0.8661 C   0  0  0  0  0
   -4.4685    3.5624    2.1382 C   0  0  0  0  0
   -2.5455   -1.1298   -0.9186 N   0  0  0  0  0
   -3.9577    1.6112    1.0674 N   0  0  0  0  0
    2.2053    1.2626   -0.4146 N   0  0  0  0  0
   -2.3472   -3.3072   -1.8185 N   0  0  0  0  0
   -0.8618    1.5596    0.4368 N   0  0  0  0  0
    3.8007   -1.0207   -1.9833 O   0  0  0  0  0
    0.8192    1.2561   -2.3186 O   0  0  0  0  0
    4.2467    1.0736   -2.7886 O   0  0  0  0  0
   -2.1272    2.2327   -1.4207 O   0  0  0  0  0
    6.6516    1.6838    0.3498 O   0  0  0  0  0
   -3.5526    2.9406    1.2503 O   0  0  0  0  0
   -4.3809   -2.7950   -0.1831 S   0  0  0  0  0
    2.6827    2.8539    1.6514 S   0  0  0  0  0
  1 29  1  0  0  0
  2  7  1  0  0  0
  2 18  1  0  0  0
  3 21  1  0  0  0
  3 29  1  0  0  0
  4  8  1  0  0  0
  4 20  1  0  0  0
  6 20  1  0  0  0
  7  9  1  0  0  0
  8 23  1  0  0  0
  9 22  1  0  0  0
 10  5  1  0  0  0
 10 30  1  0  0  0
 11 12  1  0  0  0
 11 13  1  0  0  0
 12 14  1  0  0  0
 13 27  1  0  0  0
 14  5  1  0  0  0
 14 27  1  0  0  0
 15  6  1  0  0  0
 15 16  1  0  0  0
 15 22  1  0  0  0
 16 20  1  0  0  0
 16 30  1  0  0  0
 17 28  1  0  0  0
 19 28  1  0  0  0
  1  2  2  0  0  0
  3 18  2  0  0  0
  4  5  2  0  0  0
  6 24  2  0  0  0
  7 19  2  0  0  0
  8 25  2  0  0  0
  9 26  2  0  0  0
M  CHG  1  23  -1
M  END
> <rmsd>
0.193647161

$$$$
ZINC11616461


 30 33  0  0  0  0  0  0  0  0999 V2000
   -4.6634   -1.0745    0.5467 C   0  0  0  0  0
   -3.5388   -0.4739    0.0208 C   0  0  0  0  0
   -3.2569   -2.4847   -0.8083 C   0  0  0  0  0
    3.4453    0.1564   -0.4156 C   0  0  0  0  0
    4.3672    0.3205    0.5624 C   0  0  0  0  0
    1.1392    0.9528   -1.0981 C   0  0  0  0  0
   -3.1761    0.9501    0.2534 C   0  0  0  0  0
    3.8141   -0.5765   -1.6998 C   0  0  0  0  0
   -1.9201    1.4932   -0.3757 C   0  0  0  0  0
    4.1250    1.1634    1.8144 C   0  0  0  0  0
    7.4640   -0.8182    2.0549 C   0  0  0  0  0
    6.0078   -1.1159    1.7988 C   0  0  0  0  0
    7.5656    0.6283    1.6291 C   0  0  0  0  0
    5.7245   -0.2993    0.5522 C   0  0  0  0  0
    0.5024    1.7854    0.0538 C   0  0  0  0  0
    1.6403    1.2098    0.9256 C   0  0  0  0  0
   -4.2729    3.7789    1.9045 C   0  0  0  0  0
   -2.7308   -1.2810   -0.7560 N   0  0  0  0  0
   -3.9228    1.7155    0.9908 N   0  0  0  0  0
    2.2083    0.7078   -0.3112 N   0  0  0  0  0
   -2.7156   -3.5284   -1.4906 N   0  0  0  0  0
   -0.8337    1.3405    0.4413 N   0  0  0  0  0
    3.6169   -1.8195   -1.6708 O   0  0  0  0  0
    0.8613    0.6835   -2.2430 O   0  0  0  0  0
    4.2658    0.1607   -2.6148 O   0  0  0  0  0
   -1.9995    1.9838   -1.4904 O   0  0  0  0  0
    6.6602    0.7853    0.5288 O   0  0  0  0  0
   -3.4017    3.0133    1.0866 O   0  0  0  0  0
   -4.7229   -2.7160    0.0533 S   0  0  0  0  0
    2.7917    2.3994    1.6449 S   0  0  0  0  0
  1 29  1  0  0  0
  2  7  1  0  0  0
  2 18  1  0  0  0
  3 21  1  0  0  0
  3 29  1  0  0  0
  4  8  1  0  0  0
  4 20  1  0  0  0
  6 20  1  0  0  0
  7  9  1  0  0  0
  8 23  1  0  0  0
  9 22  1  0  0  0
 10  5  1  0  0  0
 10 30  1  0  0  0
 11 12  1  0  0  0
 11 13  1  0  0  0
 12 14  1  0  0  0
 13 27  1  0  0  0
 14  5  1  0  0  0
 14 27  1  0  0  0
 15  6  1  0  0  0
 15 16  1  0  0  0
 15 22  1  0  0  0
 16 20  1  0  0  0
 16 30  1  0  0  0
 17 28  1  0  0  0
 19 28  1  0  0  0
  1  2  2  0  0  0
  3 18  2  0  0  0
  4  5  2  0  0  0
  6 24  2  0  0  0
  7 19  2  0  0  0
  8 25  2  0  0  0
  9 26  2  0  0  0
M  CHG  1  23  -1
M  END
> <rmsd>
0.166150913

$$$$
ZINC11616461


 30 33  0  0  0  0  0  0  0  0999 V2000
   -2.7676   -1.3405   -0.7692 C   0  0  0  0  0
   -3.5227   -0.4793   -0.0008 C   0  0  0  0  0
   -4.7695   -2.2733    0.1926 C   0  0  0  0  0
    3.4615    0.1682   -0.4107 C   0  0  0  0  0
    4.3799    0.3282    0.5712 C   0  0  0  0  0
    1.1559    0.9640   -1.0957 C   0  0  0  0  0
   -3.1638    0.9439    0.2417 C   0  0  0  0  0
    3.8359   -0.5559   -1.6982 C   0  0  0  0  0
   -1.9069    1.4936   -0.3799 C   0  0  0  0  0
    4.1318    1.1628    1.8277 C   0  0  0  0  0
    7.4742   -0.8133    2.0667 C   0  0  0  0  0
    6.0195   -1.1125    1.8041 C   0  0  0  0  0
    7.5741    0.6360    1.6502 C   0  0  0  0  0
    5.7384   -0.2888    0.5616 C   0  0  0  0  0
    0.5136    1.7881    0.0592 C   0  0  0  0  0
    1.6499    1.2095    0.9312 C   0  0  0  0  0
   -4.2718    3.7602    1.9068 C   0  0  0  0  0
   -4.6712   -1.0123    0.5512 N   0  0  0  0  0
   -3.9144    1.7032    0.9815 N   0  0  0  0  0
    2.2229    0.7163   -0.3069 N   0  0  0  0  0
   -5.7851   -3.0978    0.5622 N   0  0  0  0  0
   -0.8228    1.3380    0.4397 N   0  0  0  0  0
    3.6412   -1.7995   -1.6776 O   0  0  0  0  0
    0.8822    0.7013   -2.2431 O   0  0  0  0  0
    4.2890    0.1879   -2.6071 O   0  0  0  0  0
   -1.9837    1.9909   -1.4918 O   0  0  0  0  0
    6.6719    0.7980    0.5480 O   0  0  0  0  0
   -3.3963    3.0014    1.0870 O   0  0  0  0  0
   -3.5156   -2.8833   -0.8076 S   0  0  0  0  0
    2.7965    2.3970    1.6616 S   0  0  0  0  0
  1 29  1  0  0  0
  2  7  1  0  0  0
  2 18  1  0  0  0
  3 21  1  0  0  0
  3 29  1  0  0  0
  4  8  1  0  0  0
  4 20  1  0  0  0
  6 20  1  0  0  0
  7  9  1  0  0  0
  8 23  1  0  0  0
  9 22  1  0  0  0
 10  5  1  0  0  0
 10 30  1  0  0  0
 11 12  1  0  0  0
 11 13  1  0  0  0
 12 14  1  0  0  0
 13 27  1  0  0  0
 14  5  1  0  0  0
 14 27  1  0  0  0
 15  6  1  0  0  0
 15 16  1  0  0  0
 15 22  1  0  0  0
 16 20  1  0  0  0
 16 30  1  0  0  0
 17 28  1  0  0  0
 19 28  1  0  0  0
  1  2  2  0  0  0
  3 18  2  0  0  0
  4  5  2  0  0  0
  6 24  2  0  0  0
  7 19  2  0  0  0
  8 25  2  0  0  0
  9 26  2  0  0  0
M  CHG  1  23  -1
M  END
> <rmsd>
0.193055883

$$$$
ZINC11616461


 30 33  0  0  0  0  0  0  0  0999 V2000
   -2.5773   -1.1895   -0.9369 C   0  0  0  0  0
   -3.3877   -0.4590   -0.0933 C   0  0  0  0  0
   -4.4650   -2.3678   -0.0147 C   0  0  0  0  0
    3.4995    0.8465   -0.5703 C   0  0  0  0  0
    4.4228    1.0164    0.4054 C   0  0  0  0  0
    1.1168    1.4785   -1.1546 C   0  0  0  0  0
   -3.1514    0.9692    0.2497 C   0  0  0  0  0
    3.9066    0.2558   -1.9147 C   0  0  0  0  0
   -1.9634    1.6746   -0.3497 C   0  0  0  0  0
    4.1309    1.7305    1.7252 C   0  0  0  0  0
    7.6407    0.0529    1.7585 C   0  0  0  0  0
    6.2126   -0.3566    1.4986 C   0  0  0  0  0
    7.6014    1.5319    1.4507 C   0  0  0  0  0
    5.8303    0.5273    0.3265 C   0  0  0  0  0
    0.4310    2.1539    0.0697 C   0  0  0  0  0
    1.6344    1.6181    0.8764 C   0  0  0  0  0
   -4.4663    3.5435    2.1405 C   0  0  0  0  0
   -4.4710   -1.1330    0.4362 N   0  0  0  0  0
   -3.9491    1.6009    1.0571 N   0  0  0  0  0
    2.2198    1.2711   -0.4047 N   0  0  0  0  0
   -5.3942   -3.3058    0.3087 N   0  0  0  0  0
   -0.8508    1.5580    0.4375 N   0  0  0  0  0
    3.8239   -0.9984   -1.9846 O   0  0  0  0  0
    0.8407    1.2771   -2.3139 O   0  0  0  0  0
    4.2702    1.1024   -2.7725 O   0  0  0  0  0
   -2.1102    2.2433   -1.4196 O   0  0  0  0  0
    6.6627    1.6922    0.3791 O   0  0  0  0  0
   -3.5463    2.9294    1.2514 O   0  0  0  0  0
   -3.1856   -2.7867   -1.0788 S   0  0  0  0  0
    2.6875    2.8475    1.6748 S   0  0  0  0  0
  1 29  1  0  0  0
  2  7  1  0  0  0
  2 18  1  0  0  0
  3 21  1  0  0  0
  3 29  1  0  0  0
  4  8  1  0  0  0
  4 20  1  0  0  0
  6 20  1  0  0  0
  7  9  1  0  0  0
  8 23  1  0  0  0
  9 22  1  0  0  0
 10  5  1  0  0  0
 10 30  1  0  0  0
 11 12  1  0  0  0
 11 13  1  0  0  0
 12 14  1  0  0  0
 13 27  1  0  0  0
 14  5  1  0  0  0
 14 27  1  0  0  0
 15  6  1  0  0  0
 15 16  1  0  0  0
 15 22  1  0  0  0
 16 20  1  0  0  0
 16 30  1  0  0  0
 17 28  1  0  0  0
 19 28  1  0  0  0
  1  2  2  0  0  0
  3 18  2  0  0  0
  4  5  2  0  0  0
  6 24  2  0  0  0
  7 19  2  0  0  0
  8 25  2  0  0  0
  9 26  2  0  0  0
M  CHG  1  23  -1
M  END
> <rmsd>
0.167586833

$$$$
ZINC70639139


 33 36  0  0  0  0  0  0  0  0999 V2000
   -2.5947   -2.6957   -1.0334 C   0  0  0  0  0
   -3.0849   -2.6678    0.2721 C   0  0  0  0  0
   -2.2404   -1.5066   -1.6709 C   0  0  0  0  0
   -3.2212   -1.4509    0.9401 C   0  0  0  0  0
   -2.3767   -0.2897   -1.0029 C   0  0  0  0  0
   -8.4331    4.2370   -0.5753 C   0  0  0  0  0
   -7.4120    5.7207    1.0350 C   0  0  0  0  0
   -9.4845    5.1389   -0.7396 C   0  0  0  0  0
   -8.4633    6.6226    0.8707 C   0  0  0  0  0
   -2.8671   -0.2618    0.3026 C   0  0  0  0  0
   -7.3969    4.5279    0.3121 C   0  0  0  0  0
   -9.4996    6.3317   -0.0166 C   0  0  0  0  0
    0.4231    2.0806   -0.0119 C   0  0  0  0  0
    3.4812   -1.5994   -1.0793 C   0  0  0  0  0
    4.2398    1.9168    0.2252 C   0  0  0  0  0
    2.8428    2.4993    0.0184 C   0  0  0  0  0
    4.4177    0.6021   -0.5320 C   0  0  0  0  0
    1.9315    0.1766   -0.3808 C   0  0  0  0  0
   -5.9397    2.7640   -0.6409 C   0  0  0  0  0
   -6.1092    3.0720    1.8177 C   0  0  0  0  0
   -4.5120    2.2509   -0.4371 C   0  0  0  0  0
   -4.6759    2.5501    1.9419 C   0  0  0  0  0
    1.7619    1.4867    0.3825 C   0  0  0  0  0
    3.3276   -0.3995   -0.1644 C   0  0  0  0  0
   -1.9902    2.1188    0.5855 C   0  0  0  0  0
   -3.0154    1.0636    1.0293 C   0  0  0  0  0
   -6.3422    3.6231    0.4769 N   0  0  0  0  0
   -4.3678    1.5965    0.8690 N   0  0  0  0  0
   -0.6299    1.6727    0.7845 N   0  0  0  0  0
    3.3645   -1.3557   -2.3123 O   0  0  0  0  0
    0.3601    2.8491   -0.9644 O   0  0  0  0  0
    3.7068   -2.6918   -0.4868 O   0  0  0  0  0
  -10.5092    7.1977   -0.1744 F   0  0  0  0  0
  1  2  1  0  0  0
  3  5  1  0  0  0
  4 10  1  0  0  0
  6 11  1  0  0  0
  7  9  1  0  0  0
  8 12  1  0  0  0
 11 27  1  0  0  0
 12 33  1  0  0  0
 13 29  1  0  0  0
 14 30  1  0  0  0
 15 16  1  0  0  0
 15 17  1  0  0  0
 16 23  1  0  0  0
 17 24  1  0  0  0
 18 23  1  0  0  0
 18 24  1  0  0  0
 19 21  1  0  0  0
 19 27  1  0  0  0
 20 22  1  0  0  0
 20 27  1  0  0  0
 21 28  1  0  0  0
 22 28  1  0  0  0
 23 13  1  0  0  0
 24 14  1  0  0  0
 25 26  1  0  0  0
 25 29  1  0  0  0
 26 10  1  0  0  0
 26 28  1  0  0  0
  1  3  2  0  0  0
  2  4  2  0  0  0
  5 10  2  0  0  0
  6  8  2  0  0  0
  7 11  2  0  0  0
  9 12  2  0  0  0
 13 31  2  0  0  0
 14 32  2  0  0  0
M  CHG  1  30  -1
M  END
> <rmsd>
0.753475249

$$$$
ZINC35397605


 30 32  0  0  0  0  0  0  0  0999 V2000
   -2.9270   -2.3336   -1.7450 C   0  0  0  0  0
   -3.3435   -3.1251   -0.6747 C   0  0  0  0  0
    0.8701    0.4576   -0.6599 C   0  0  0  0  0
   -3.4000   -1.1725    0.7471 C   0  0  0  0  0
   -0.0548    2.4577   -1.5548 C   0  0  0  0  0
    1.8414    0.4980   -1.6540 C   0  0  0  0  0
   -0.0998    1.4524   -0.6024 C   0  0  0  0  0
   -2.7469   -0.9616   -1.5693 C   0  0  0  0  0
   -2.9834   -0.3810   -0.3233 C   0  0  0  0  0
   -3.5800   -2.5445    0.5714 C   0  0  0  0  0
    1.7993    1.5459   -2.5595 C   0  0  0  0  0
    2.8676   -0.5570   -1.7128 C   0  0  0  0  0
    2.4746    4.0376   -5.6852 C   0  0  0  0  0
    3.8355    4.2539   -5.0202 C   0  0  0  0  0
    2.3667    2.7634   -6.5256 C   0  0  0  0  0
    3.9228    3.8039   -3.5620 C   0  0  0  0  0
    1.7161    1.5746   -5.8186 C   0  0  0  0  0
    4.0467    2.2943   -3.3678 C   0  0  0  0  0
    2.6202    0.8549   -4.8204 C   0  0  0  0  0
   -2.1227   -0.8884   -3.8630 C   0  0  0  0  0
    0.8730    2.5304   -2.5354 N   0  0  0  0  0
    2.7733    1.5931   -3.5624 N   0  0  0  0  0
   -1.1081    1.4381    0.4043 N   0  0  0  0  0
    2.6318   -1.6111   -2.4131 O   0  0  0  0  0
    3.9654   -0.3892   -1.0615 O   0  0  0  0  0
   -3.6005    1.7314    1.0489 O   0  0  0  0  0
   -2.9399    2.0137   -1.3559 O   0  0  0  0  0
   -2.3395   -0.2077   -2.6287 O   0  0  0  0  0
   -2.7623    1.3574   -0.0749 S   0  0  0  0  0
   -4.0945   -3.5214    1.8915 Cl  0  0  0  0  0
  1  8  1  0  0  0
  2 10  1  0  0  0
  3  7  1  0  0  0
  4  9  1  0  0  0
  5 21  1  0  0  0
  6 11  1  0  0  0
  6 12  1  0  0  0
  7 23  1  0  0  0
  8 28  1  0  0  0
 10 30  1  0  0  0
 11 22  1  0  0  0
 12 24  1  0  0  0
 13 14  1  0  0  0
 13 15  1  0  0  0
 14 16  1  0  0  0
 15 17  1  0  0  0
 16 18  1  0  0  0
 17 19  1  0  0  0
 18 22  1  0  0  0
 19 22  1  0  0  0
 20 28  1  0  0  0
 29  9  1  0  0  0
 29 23  1  0  0  0
  1  2  2  0  0  0
  3  6  2  0  0  0
  4 10  2  0  0  0
  5  7  2  0  0  0
  8  9  2  0  0  0
 11 21  2  0  0  0
 12 25  2  0  0  0
 29 26  2  0  0  0
 29 27  2  0  0  0
M  CHG  1  24  -1
M  END
> <rmsd>
0.505479693

$$$$
ZINC35397605


 30 32  0  0  0  0  0  0  0  0999 V2000
   -2.4443   -2.2692   -1.7763 C   0  0  0  0  0
   -2.8963   -3.1087   -0.7583 C   0  0  0  0  0
    1.0064    0.7842   -0.3080 C   0  0  0  0  0
   -3.2370   -1.1914    0.6717 C   0  0  0  0  0
    0.0169    2.7233   -1.2659 C   0  0  0  0  0
    2.0605    0.9160   -1.2052 C   0  0  0  0  0
   -0.0388    1.7009   -0.3324 C   0  0  0  0  0
   -2.3884   -0.8907   -1.5702 C   0  0  0  0  0
   -2.7848   -0.3518   -0.3462 C   0  0  0  0  0
   -3.2927   -2.5699    0.4656 C   0  0  0  0  0
    2.0220    1.9734   -2.0999 C   0  0  0  0  0
    3.1665   -0.0564   -1.1775 C   0  0  0  0  0
    2.7914    4.5638   -5.1219 C   0  0  0  0  0
    4.0632    4.8716   -4.3289 C   0  0  0  0  0
    2.8618    3.3000   -5.9818 C   0  0  0  0  0
    4.0483    4.4041   -2.8737 C   0  0  0  0  0
    2.2422    2.0528   -5.3517 C   0  0  0  0  0
    4.2703    2.9052   -2.6841 C   0  0  0  0  0
    3.1020    1.3868   -4.2799 C   0  0  0  0  0
   -1.5599   -0.7299   -3.7937 C   0  0  0  0  0
    1.0239    2.8837   -2.1535 N   0  0  0  0  0
    3.0790    2.1124   -3.0055 N   0  0  0  0  0
   -1.1328    1.5921    0.5741 N   0  0  0  0  0
    3.0798   -1.1129   -1.9077 O   0  0  0  0  0
    4.1821    0.1833   -0.4236 O   0  0  0  0  0
   -3.6898    1.6829    0.9830 O   0  0  0  0  0
   -2.8310    2.0570   -1.3455 O   0  0  0  0  0
   -1.9434   -0.0894   -2.5785 O   0  0  0  0  0
   -2.7236    1.3938   -0.0602 S   0  0  0  0  0
   -3.8512   -3.6062    1.7210 Cl  0  0  0  0  0
  1  8  1  0  0  0
  2 10  1  0  0  0
  3  7  1  0  0  0
  4  9  1  0  0  0
  5 21  1  0  0  0
  6 11  1  0  0  0
  6 12  1  0  0  0
  7 23  1  0  0  0
  8 28  1  0  0  0
 10 30  1  0  0  0
 11 22  1  0  0  0
 12 24  1  0  0  0
 13 14  1  0  0  0
 13 15  1  0  0  0
 14 16  1  0  0  0
 15 17  1  0  0  0
 16 18  1  0  0  0
 17 19  1  0  0  0
 18 22  1  0  0  0
 19 22  1  0  0  0
 20 28  1  0  0  0
 29  9  1  0  0  0
 29 23  1  0  0  0
  1  2  2  0  0  0
  3  6  2  0  0  0
  4 10  2  0  0  0
  5  7  2  0  0  0
  8  9  2  0  0  0
 11 21  2  0  0  0
 12 25  2  0  0  0
 29 26  2  0  0  0
 29 27  2  0  0  0
M  CHG  1  24  -1
M  END
> <rmsd>
0.683435798

$$$$
ZINC35397420


 27 29  0  0  0  0  0  0  0  0999 V2000
   -3.3971   -1.1892    0.7490 C   0  0  0  0  0
   -2.7434   -0.9515   -1.5647 C   0  0  0  0  0
   -3.5701   -2.5603    0.5591 C   0  0  0  0  0
   -2.9164   -2.3225   -1.7545 C   0  0  0  0  0
    0.8683    0.4568   -0.6593 C   0  0  0  0  0
   -0.0603    2.4521   -1.5610 C   0  0  0  0  0
    1.8380    0.4942   -1.6552 C   0  0  0  0  0
   -0.1025    1.4507   -0.6044 C   0  0  0  0  0
   -2.9837   -0.3849   -0.3131 C   0  0  0  0  0
   -3.3298   -3.1269   -0.6925 C   0  0  0  0  0
    1.7931    1.5383   -2.5649 C   0  0  0  0  0
    2.8653   -0.5599   -1.7112 C   0  0  0  0  0
    3.9557    3.4839   -5.6032 C   0  0  0  0  0
    3.1825    2.5888   -6.5705 C   0  0  0  0  0
    4.7900    2.7001   -4.5897 C   0  0  0  0  0
    2.0849    1.7422   -5.9290 C   0  0  0  0  0
    4.0218    2.2998   -3.3287 C   0  0  0  0  0
    2.5878    0.8295   -4.8126 C   0  0  0  0  0
    0.8657    2.5218   -2.5434 N   0  0  0  0  0
    2.7664    1.5825   -3.5705 N   0  0  0  0  0
   -1.1093    1.4395    0.4040 N   0  0  0  0  0
    2.6295   -1.6171   -2.4069 O   0  0  0  0  0
    3.9639   -0.3881   -1.0625 O   0  0  0  0  0
   -3.6010    1.7325    1.0514 O   0  0  0  0  0
   -2.9447    2.0056   -1.3557 O   0  0  0  0  0
   -2.7642    1.3548   -0.0722 S   0  0  0  0  0
   -3.5649   -4.9843   -0.9499 Br  0  0  0  0  0
  1  3  1  0  0  0
  2  9  1  0  0  0
  4 10  1  0  0  0
  5  8  1  0  0  0
  6 19  1  0  0  0
  7 11  1  0  0  0
  7 12  1  0  0  0
  8 21  1  0  0  0
 10 27  1  0  0  0
 11 20  1  0  0  0
 12 22  1  0  0  0
 13 14  1  0  0  0
 13 15  1  0  0  0
 14 16  1  0  0  0
 15 17  1  0  0  0
 16 18  1  0  0  0
 17 20  1  0  0  0
 18 20  1  0  0  0
 26  9  1  0  0  0
 26 21  1  0  0  0
  1  9  2  0  0  0
  2  4  2  0  0  0
  3 10  2  0  0  0
  5  7  2  0  0  0
  6  8  2  0  0  0
 11 19  2  0  0  0
 12 23  2  0  0  0
 26 24  2  0  0  0
 26 25  2  0  0  0
M  CHG  1  22  -1
M  END
> <rmsd>
0.510008752

$$$$
ZINC35397420


 27 29  0  0  0  0  0  0  0  0999 V2000
   -3.2322   -1.2081    0.6730 C   0  0  0  0  0
   -2.3865   -0.8795   -1.5662 C   0  0  0  0  0
   -3.2795   -2.5847    0.4530 C   0  0  0  0  0
   -2.4338   -2.2561   -1.7861 C   0  0  0  0  0
    1.0045    0.7846   -0.3096 C   0  0  0  0  0
    0.0113    2.7188   -1.2734 C   0  0  0  0  0
    2.0568    0.9140   -1.2093 C   0  0  0  0  0
   -0.0416    1.7001   -0.3358 C   0  0  0  0  0
   -2.7857   -0.3555   -0.3367 C   0  0  0  0  0
   -2.8803   -3.1087   -0.7764 C   0  0  0  0  0
    2.0156    1.9678   -2.1080 C   0  0  0  0  0
    3.1639   -0.0572   -1.1796 C   0  0  0  0  0
    4.2934    4.1274   -4.9081 C   0  0  0  0  0
    3.6857    3.1933   -5.9535 C   0  0  0  0  0
    5.0883    3.3917   -3.8290 C   0  0  0  0  0
    2.6025    2.2537   -5.4273 C   0  0  0  0  0
    4.2396    2.9112   -2.6503 C   0  0  0  0  0
    3.0688    1.3623   -4.2783 C   0  0  0  0  0
    1.0165    2.8768   -2.1635 N   0  0  0  0  0
    3.0718    2.1044   -3.0169 N   0  0  0  0  0
   -1.1340    1.5938    0.5731 N   0  0  0  0  0
    3.0769   -1.1167   -1.9056 O   0  0  0  0  0
    4.1805    0.1865   -0.4285 O   0  0  0  0  0
   -3.6903    1.6836    0.9861 O   0  0  0  0  0
   -2.8361    2.0493   -1.3454 O   0  0  0  0  0
   -2.7257    1.3913   -0.0577 S   0  0  0  0  0
   -2.9450   -4.9738   -1.0746 Br  0  0  0  0  0
  1  3  1  0  0  0
  2  9  1  0  0  0
  4 10  1  0  0  0
  5  8  1  0  0  0
  6 19  1  0  0  0
  7 11  1  0  0  0
  7 12  1  0  0  0
  8 21  1  0  0  0
 10 27  1  0  0  0
 11 20  1  0  0  0
 12 22  1  0  0  0
 13 14  1  0  0  0
 13 15  1  0  0  0
 14 16  1  0  0  0
 15 17  1  0  0  0
 16 18  1  0  0  0
 17 20  1  0  0  0
 18 20  1  0  0  0
 26  9  1  0  0  0
 26 21  1  0  0  0
  1  9  2  0  0  0
  2  4  2  0  0  0
  3 10  2  0  0  0
  5  7  2  0  0  0
  6  8  2  0  0  0
 11 19  2  0  0  0
 12 23  2  0  0  0
 26 24  2  0  0  0
 26 25  2  0  0  0
M  CHG  1  22  -1
M  END
> <rmsd>
0.688969612

$$$$
ZINC15275997


 33 36  0  0  0  0  0  0  0  0999 V2000
    0.0699    1.8130   -8.2283 C   0  0  0  0  0
   -0.2398    3.1717   -8.2872 C   0  0  0  0  0
   -0.2524    1.0729   -7.0906 C   0  0  0  0  0
   -2.5447   -1.0228   -0.7889 C   0  0  0  0  0
   -0.8716    3.7905   -7.2086 C   0  0  0  0  0
   -0.8843    1.6917   -6.0119 C   0  0  0  0  0
   -3.3894   -2.1172   -0.6038 C   0  0  0  0  0
   -4.8591   -0.7546    0.7454 C   0  0  0  0  0
   -2.8570    0.2058   -0.2068 C   0  0  0  0  0
   -1.1939    3.0505   -6.0709 C   0  0  0  0  0
   -4.5467   -1.9831    0.1634 C   0  0  0  0  0
   -4.0142    0.3398    0.5603 C   0  0  0  0  0
   -2.4631    2.4774   -2.8144 C   0  0  0  0  0
   -0.2268    3.0382   -3.1376 C   0  0  0  0  0
    1.3809    2.7766    0.0042 C   0  0  0  0  0
    3.1102   -1.0731   -1.0246 C   0  0  0  0  0
   -1.9340    1.3758   -0.4179 C   0  0  0  0  0
   -1.6153    1.6914   -1.8575 C   0  0  0  0  0
   -0.4296    2.6363   -1.7035 C   0  0  0  0  0
    0.5089    1.8640   -0.8050 C   0  0  0  0  0
   -1.8739    3.7165   -4.9098 C   0  0  0  0  0
    2.1792    0.0109   -0.4688 C   0  0  0  0  0
    1.3609    0.7950   -1.4766 C   0  0  0  0  0
   -1.5267    3.0947   -3.6492 N   0  0  0  0  0
   -0.5055    1.1717    0.1442 N   0  0  0  0  0
    2.4779    3.0917   -0.5347 O   0  0  0  0  0
    4.0057   -0.6890   -1.8257 O   0  0  0  0  0
   -3.6797    2.4743   -2.8776 O   0  0  0  0  0
    0.8304    3.3338   -3.6661 O   0  0  0  0  0
    0.9017    3.1121    1.1235 O   0  0  0  0  0
    2.8673   -2.2366   -0.5918 O   0  0  0  0  0
   -5.3710   -3.0509    0.3437 O   0  0  0  0  0
   -4.3346    1.5328    1.1352 O   0  0  0  0  0
  1  2  1  0  0  0
  3  6  1  0  0  0
  4  9  1  0  0  0
  5 10  1  0  0  0
  7 11  1  0  0  0
  8 12  1  0  0  0
 11 32  1  0  0  0
 12 33  1  0  0  0
 13 24  1  0  0  0
 14 24  1  0  0  0
 15 26  1  0  0  0
 16 27  1  0  0  0
 17  9  1  0  0  0
 17 18  1  0  0  0
 17 25  1  0  0  0
 18 13  1  0  0  0
 18 19  1  0  0  0
 19 14  1  0  0  0
 19 20  1  0  0  0
 20 15  1  0  0  0
 20 23  1  0  0  0
 20 25  1  0  0  0
 21 10  1  0  0  0
 21 24  1  0  0  0
 22 16  1  0  0  0
 22 23  1  0  0  0
  1  3  2  0  0  0
  2  5  2  0  0  0
  4  7  2  0  0  0
  6 10  2  0  0  0
  8 11  2  0  0  0
  9 12  2  0  0  0
 13 28  2  0  0  0
 14 29  2  0  0  0
 15 30  2  0  0  0
 16 31  2  0  0  0
M  CHG  3  25   1  26  -1  27  -1
M  END
> <rmsd>
0.581285596

$$$$
ZINC14040656


 32 34  0  0  0  0  0  0  0  0999 V2000
   -2.3976   -2.7034   -0.3026 C   0  0  0  0  0
   -5.7752    5.8802    1.6375 C   0  0  0  0  0
   -3.4349   -2.6883    0.6298 C   0  0  0  0  0
   -2.4933   -1.9381   -1.4649 C   0  0  0  0  0
   -6.9549    5.5727    0.9599 C   0  0  0  0  0
   -4.6870    5.0097    1.5739 C   0  0  0  0  0
    2.0662   -1.2219    0.1904 C   0  0  0  0  0
   -4.5679   -1.9079    0.4000 C   0  0  0  0  0
   -3.6264   -1.1578   -1.6948 C   0  0  0  0  0
   -7.0467    4.3947    0.2185 C   0  0  0  0  0
    1.1490   -1.2864    1.2392 C   0  0  0  0  0
    0.8884    0.6797   -0.7227 C   0  0  0  0  0
   -4.7788    3.8317    0.8325 C   0  0  0  0  0
   -0.0288    0.6153    0.3262 C   0  0  0  0  0
    1.9360   -0.2388   -0.7906 C   0  0  0  0  0
   -4.6637   -1.1426   -0.7624 C   0  0  0  0  0
   -5.9586    3.5242    0.1549 C   0  0  0  0  0
    0.1015   -0.3678    1.3071 C   0  0  0  0  0
   -3.6310    2.9370    0.7793 C   0  0  0  0  0
   -1.1730    2.8929    0.0138 C   0  0  0  0  0
   -6.4501    0.1288    0.1586 C   0  0  0  0  0
   -7.0885    1.4599   -0.1886 C   0  0  0  0  0
   -1.0881    1.5566    0.3828 N   0  0  0  0  0
   -2.4362    3.4761    0.2410 N   0  0  0  0  0
    2.8707   -0.1729   -1.8577 N   0  0  0  0  0
    3.8059   -1.0084   -1.8990 O   0  0  0  0  0
   -3.7408    1.7612    1.1624 O   0  0  0  0  0
    2.7357    0.7187   -2.7301 O   0  0  0  0  0
   -0.7839   -0.4480    2.3402 O   0  0  0  0  0
   -5.7767   -0.3761   -0.9880 O   0  0  0  0  0
   -6.0683    2.3785   -0.5748 O   0  0  0  0  0
    0.0209    3.8941   -0.6099 S   0  0  0  0  0
  1  3  1  0  0  0
  2  5  1  0  0  0
  4  9  1  0  0  0
  6 13  1  0  0  0
  7 15  1  0  0  0
  8 16  1  0  0  0
 10 17  1  0  0  0
 11 18  1  0  0  0
 12 14  1  0  0  0
 13 19  1  0  0  0
 14 23  1  0  0  0
 15 25  1  0  0  0
 16 30  1  0  0  0
 17 31  1  0  0  0
 18 29  1  0  0  0
 19 24  1  0  0  0
 20 23  1  0  0  0
 20 24  1  0  0  0
 21 22  1  0  0  0
 21 30  1  0  0  0
 22 31  1  0  0  0
 25 26  1  0  0  0
  1  4  2  0  0  0
  2  6  2  0  0  0
  3  8  2  0  0  0
  5 10  2  0  0  0
  7 11  2  0  0  0
  9 16  2  0  0  0
 12 15  2  0  0  0
 13 17  2  0  0  0
 14 18  2  0  0  0
 19 27  2  0  0  0
 20 32  2  0  0  0
 25 28  2  0  0  0
M  CHG  2  25   1  26  -1
M  END
> <rmsd>
0.387589484

$$$$
ZINC16146628


 29 31  0  0  0  0  0  0  0  0999 V2000
    1.1378    2.8325   -1.9743 C   0  0  0  0  0
    2.8262   -3.4268   -1.3403 C   0  0  0  0  0
    1.6033   -2.4488   -3.1802 C   0  0  0  0  0
    0.0272    2.7364   -1.1361 C   0  0  0  0  0
   -3.3169   -2.5682    0.4793 C   0  0  0  0  0
   -2.3615   -2.2590   -1.7182 C   0  0  0  0  0
   -3.2822   -1.1895    0.6884 C   0  0  0  0  0
   -2.3269   -0.8803   -1.5091 C   0  0  0  0  0
    2.0735   -4.5949   -1.4609 C   0  0  0  0  0
    0.8507   -3.6169   -3.3009 C   0  0  0  0  0
    0.9880    0.7837   -0.0868 C   0  0  0  0  0
    2.1736    1.9042   -1.8690 C   0  0  0  0  0
    2.5911   -2.3537   -2.1999 C   0  0  0  0  0
   -0.0478    1.7120   -0.1923 C   0  0  0  0  0
   -2.8564   -3.1030   -0.7239 C   0  0  0  0  0
   -2.7872   -0.3456   -0.3058 C   0  0  0  0  0
    2.0987    0.8798   -0.9252 C   0  0  0  0  0
    1.0858   -4.6900   -2.4412 C   0  0  0  0  0
    3.3490    2.0358   -2.7815 C   0  0  0  0  0
    3.3225   -1.2187   -2.0827 N   0  0  0  0  0
   -1.1846    1.6145    0.6657 N   0  0  0  0  0
    4.6107    0.5027   -0.6579 O   0  0  0  0  0
    3.0597   -1.0253    0.4763 O   0  0  0  0  0
   -3.7557    1.7043    0.9535 O   0  0  0  0  0
   -2.7909    2.0499   -1.3376 O   0  0  0  0  0
   -2.8884   -4.4270   -0.9242 F   0  0  0  0  0
    3.3804   -0.3013   -0.7666 S   0  0  0  0  0
   -2.7419    1.4037   -0.0402 S   0  0  0  0  0
    0.1572   -6.1311   -2.5900 Cl  0  0  0  0  0
  1 12  1  0  0  0
  2 13  1  0  0  0
  3 10  1  0  0  0
  4 14  1  0  0  0
  5 15  1  0  0  0
  6  8  1  0  0  0
  7 16  1  0  0  0
  9 18  1  0  0  0
 11 17  1  0  0  0
 13 20  1  0  0  0
 14 21  1  0  0  0
 15 26  1  0  0  0
 18 29  1  0  0  0
 19 12  1  0  0  0
 27 17  1  0  0  0
 27 20  1  0  0  0
 28 16  1  0  0  0
 28 21  1  0  0  0
  1  4  2  0  0  0
  2  9  2  0  0  0
  3 13  2  0  0  0
  5  7  2  0  0  0
  6 15  2  0  0  0
  8 16  2  0  0  0
 10 18  2  0  0  0
 11 14  2  0  0  0
 12 17  2  0  0  0
 27 22  2  0  0  0
 27 23  2  0  0  0
 28 24  2  0  0  0
 28 25  2  0  0  0
M  CHG  1  20  -1
M  END
> <rmsd>
0.679031432

$$$$
ZINC33527990


 29 31  0  0  0  0  0  0  0  0999 V2000
    2.1291   -4.5882   -1.4073 C   0  0  0  0  0
    1.1331   -4.7231   -2.3744 C   0  0  0  0  0
    1.1365    2.8329   -1.9769 C   0  0  0  0  0
    2.8597   -3.4032   -1.3191 C   0  0  0  0  0
    0.0260    2.7365   -1.1385 C   0  0  0  0  0
   -3.3188   -2.5679    0.4792 C   0  0  0  0  0
   -2.3675   -2.2584   -1.7200 C   0  0  0  0  0
   -3.2817   -1.1894    0.6891 C   0  0  0  0  0
   -2.3304   -0.8800   -1.5100 C   0  0  0  0  0
    0.8676   -3.6732   -3.2535 C   0  0  0  0  0
    0.9880    0.7848   -0.0886 C   0  0  0  0  0
    2.1729    1.9053   -1.8713 C   0  0  0  0  0
    2.5942   -2.3532   -2.1981 C   0  0  0  0  0
   -0.0483    1.7125   -0.1943 C   0  0  0  0  0
   -2.8617   -3.1024   -0.7254 C   0  0  0  0  0
   -2.7875   -0.3454   -0.3054 C   0  0  0  0  0
    2.0986    0.8812   -0.9270 C   0  0  0  0  0
    1.5982   -2.4882   -3.1654 C   0  0  0  0  0
    3.3478    2.0368   -2.7843 C   0  0  0  0  0
    3.3244   -1.2174   -2.0821 N   0  0  0  0  0
   -1.1845    1.6152    0.6646 N   0  0  0  0  0
    4.6110    0.5068   -0.6591 O   0  0  0  0  0
    3.0614   -1.0214    0.4766 O   0  0  0  0  0
   -3.7554    1.7046    0.9541 O   0  0  0  0  0
   -2.7923    2.0498   -1.3378 O   0  0  0  0  0
   -2.8964   -4.4263   -0.9267 F   0  0  0  0  0
    3.3814   -0.2985   -0.7670 S   0  0  0  0  0
   -2.7423    1.4039   -0.0402 S   0  0  0  0  0
    1.2196   -1.2230   -4.2860 Cl  0  0  0  0  0
  1  2  1  0  0  0
  3 12  1  0  0  0
  4 13  1  0  0  0
  5 14  1  0  0  0
  6 15  1  0  0  0
  7  9  1  0  0  0
  8 16  1  0  0  0
 10 18  1  0  0  0
 11 17  1  0  0  0
 13 20  1  0  0  0
 14 21  1  0  0  0
 15 26  1  0  0  0
 18 29  1  0  0  0
 19 12  1  0  0  0
 27 17  1  0  0  0
 27 20  1  0  0  0
 28 16  1  0  0  0
 28 21  1  0  0  0
  1  4  2  0  0  0
  2 10  2  0  0  0
  3  5  2  0  0  0
  6  8  2  0  0  0
  7 15  2  0  0  0
  9 16  2  0  0  0
 11 14  2  0  0  0
 12 17  2  0  0  0
 13 18  2  0  0  0
 27 22  2  0  0  0
 27 23  2  0  0  0
 28 24  2  0  0  0
 28 25  2  0  0  0
M  CHG  1  20  -1
M  END
> <rmsd>
0.677285314

$$$$
ZINC33253490


 27 28  0  0  0  0  0  0  0  0999 V2000
   -0.0378    2.7669   -1.2899 C   0  0  0  0  0
    1.0214    2.8834   -2.1900 C   0  0  0  0  0
   -3.2079   -1.2124    0.6622 C   0  0  0  0  0
   -2.3839   -0.8629   -1.5819 C   0  0  0  0  0
   -3.2454   -2.5880    0.4342 C   0  0  0  0  0
   -2.4215   -2.2385   -1.8099 C   0  0  0  0  0
    0.9951    0.8061   -0.3279 C   0  0  0  0  0
    2.0544    0.9227   -1.2280 C   0  0  0  0  0
   -0.0510    1.7283   -0.3589 C   0  0  0  0  0
    2.0675    1.9613   -2.1589 C   0  0  0  0  0
   -2.7771   -0.3499   -0.3459 C   0  0  0  0  0
   -2.8522   -3.1010   -0.8018 C   0  0  0  0  0
    3.1485   -0.0650   -1.1736 C   0  0  0  0  0
    5.3789    5.1643   -2.8766 C   0  0  0  0  0
    2.0965    1.4680   -6.7223 C   0  0  0  0  0
    4.1377    4.3357   -3.1760 C   0  0  0  0  0
    2.1992    2.1788   -5.3803 C   0  0  0  0  0
    4.2928    2.8749   -2.7702 C   0  0  0  0  0
    3.0486    1.4140   -4.3722 C   0  0  0  0  0
   -1.1358    1.6089    0.5617 N   0  0  0  0  0
    3.1251    2.0954   -3.0750 N   0  0  0  0  0
    3.0528   -1.1312   -1.8870 O   0  0  0  0  0
    4.1589    0.1750   -0.4145 O   0  0  0  0  0
   -3.6866    1.6732    0.9981 O   0  0  0  0  0
   -2.8579    2.0605   -1.3392 O   0  0  0  0  0
   -2.7295    1.3957   -0.0567 S   0  0  0  0  0
   -2.9037   -4.9647   -1.1108 Br  0  0  0  0  0
  1  9  1  0  0  0
  2 10  1  0  0  0
  3 11  1  0  0  0
  4  6  1  0  0  0
  5 12  1  0  0  0
  7  8  1  0  0  0
  8 13  1  0  0  0
  9 20  1  0  0  0
 10 21  1  0  0  0
 12 27  1  0  0  0
 13 22  1  0  0  0
 14 16  1  0  0  0
 15 17  1  0  0  0
 16 18  1  0  0  0
 17 19  1  0  0  0
 18 21  1  0  0  0
 19 21  1  0  0  0
 26 11  1  0  0  0
 26 20  1  0  0  0
  1  2  2  0  0  0
  3  5  2  0  0  0
  4 11  2  0  0  0
  6 12  2  0  0  0
  7  9  2  0  0  0
  8 10  2  0  0  0
 13 23  2  0  0  0
 26 24  2  0  0  0
 26 25  2  0  0  0
M  CHG  1  22  -1
M  END
> <rmsd>
0.707002044

$$$$
ZINC33253490


 27 28  0  0  0  0  0  0  0  0999 V2000
   -0.1066    2.5015   -1.5741 C   0  0  0  0  0
    0.8689    2.5245   -2.5708 C   0  0  0  0  0
   -3.3757   -1.1947    0.7381 C   0  0  0  0  0
   -2.7423   -0.9362   -1.5791 C   0  0  0  0  0
   -3.5403   -2.5656    0.5401 C   0  0  0  0  0
   -2.9070   -2.3071   -1.7770 C   0  0  0  0  0
    0.8583    0.4768   -0.6761 C   0  0  0  0  0
    1.8339    0.4998   -1.6728 C   0  0  0  0  0
   -0.1120    1.4777   -0.6268 C   0  0  0  0  0
    1.8392    1.5236   -2.6201 C   0  0  0  0  0
   -2.9766   -0.3800   -0.3216 C   0  0  0  0  0
   -3.3060   -3.1218   -0.7174 C   0  0  0  0  0
    2.8489   -0.5700   -1.7022 C   0  0  0  0  0
    5.3049    4.4488   -3.7021 C   0  0  0  0  0
    1.4001    0.9781   -7.1564 C   0  0  0  0  0
    3.9810    3.7167   -3.8693 C   0  0  0  0  0
    1.6831    1.6937   -5.8432 C   0  0  0  0  0
    4.0606    2.2530   -3.4527 C   0  0  0  0  0
    2.5623    0.8762   -4.9045 C   0  0  0  0  0
   -1.1112    1.4541    0.3928 N   0  0  0  0  0
    2.8129    1.5640   -3.6330 N   0  0  0  0  0
    2.6046   -1.6334   -2.3837 O   0  0  0  0  0
    3.9418   -0.4014   -1.0450 O   0  0  0  0  0
   -3.5970    1.7231    1.0634 O   0  0  0  0  0
   -2.9649    2.0179   -1.3477 O   0  0  0  0  0
   -2.7678    1.3596   -0.0706 S   0  0  0  0  0
   -3.5297   -4.9791   -0.9856 Br  0  0  0  0  0
  1  9  1  0  0  0
  2 10  1  0  0  0
  3 11  1  0  0  0
  4  6  1  0  0  0
  5 12  1  0  0  0
  7  8  1  0  0  0
  8 13  1  0  0  0
  9 20  1  0  0  0
 10 21  1  0  0  0
 12 27  1  0  0  0
 13 22  1  0  0  0
 14 16  1  0  0  0
 15 17  1  0  0  0
 16 18  1  0  0  0
 17 19  1  0  0  0
 18 21  1  0  0  0
 19 21  1  0  0  0
 26 11  1  0  0  0
 26 20  1  0  0  0
  1  2  2  0  0  0
  3  5  2  0  0  0
  4 11  2  0  0  0
  6 12  2  0  0  0
  7  9  2  0  0  0
  8 10  2  0  0  0
 13 23  2  0  0  0
 26 24  2  0  0  0
 26 25  2  0  0  0
M  CHG  1  22  -1
M  END
> <rmsd>
0.526213169

$$$$
ZINC08739991


 30 32  0  0  0  0  0  0  0  0999 V2000
   -2.3476   -1.2597   -0.9429 C   0  0  0  0  0
   -3.1580   -0.4635   -0.1610 C   0  0  0  0  0
   -3.8747   -2.7475   -0.4289 C   0  0  0  0  0
    3.2698    0.4365   -0.1086 C   0  0  0  0  0
    3.8145   -0.0324    1.0393 C   0  0  0  0  0
    1.2623    1.7430   -0.9475 C   0  0  0  0  0
   -3.0231    0.9711    0.2093 C   0  0  0  0  0
    3.8106   -0.0315   -1.4546 C   0  0  0  0  0
   -1.8430    1.7492   -0.3107 C   0  0  0  0  0
    7.2285   -0.9137    2.0161 C   0  0  0  0  0
    3.2264    0.2428    2.4215 C   0  0  0  0  0
    0.4913    2.3554    0.2567 C   0  0  0  0  0
    1.7350    1.9721    1.0877 C   0  0  0  0  0
    8.1799   -0.1041    2.8440 C   0  0  0  0  0
   -4.5911    3.4437    2.0420 C   0  0  0  0  0
    5.0487   -0.8983    1.1038 C   0  0  0  0  0
   -2.7567   -2.5698   -1.0973 N   0  0  0  0  0
   -3.9018    1.5471    0.9731 N   0  0  0  0  0
    2.1982    1.2706   -0.0959 N   0  0  0  0  0
   -4.5530   -3.9245   -0.3705 N   0  0  0  0  0
   -0.7759    1.6837    0.5412 N   0  0  0  0  0
    3.2497   -1.0588   -1.9177 O   0  0  0  0  0
    1.0858    1.6384   -2.1387 O   0  0  0  0  0
    4.7443    0.6731   -1.9193 O   0  0  0  0  0
   -1.9577    2.3226   -1.3819 O   0  0  0  0  0
    7.4922   -2.0129    1.5476 O   0  0  0  0  0
    6.0405   -0.2444    1.8674 O   0  0  0  0  0
   -3.5867    2.8933    1.2040 O   0  0  0  0  0
   -4.4903   -1.3815    0.4076 S   0  0  0  0  0
    1.4781    0.7665    2.4094 S   0  0  0  0  0
  1 17  1  0  0  0
  2  7  1  0  0  0
  2 29  1  0  0  0
  3 20  1  0  0  0
  3 29  1  0  0  0
  4  8  1  0  0  0
  4 19  1  0  0  0
  6 19  1  0  0  0
  7  9  1  0  0  0
  8 22  1  0  0  0
  9 21  1  0  0  0
 10 27  1  0  0  0
 11  5  1  0  0  0
 11 30  1  0  0  0
 12  6  1  0  0  0
 12 13  1  0  0  0
 12 21  1  0  0  0
 13 19  1  0  0  0
 13 30  1  0  0  0
 14 10  1  0  0  0
 15 28  1  0  0  0
 16  5  1  0  0  0
 16 27  1  0  0  0
 18 28  1  0  0  0
  1  2  2  0  0  0
  3 17  2  0  0  0
  4  5  2  0  0  0
  6 23  2  0  0  0
  7 18  2  0  0  0
  8 24  2  0  0  0
  9 25  2  0  0  0
 10 26  2  0  0  0
M  CHG  1  22  -1
M  END
> <rmsd>
0.360525131

$$$$
ZINC08739991


 30 32  0  0  0  0  0  0  0  0999 V2000
   -2.6783   -1.3591   -0.8507 C   0  0  0  0  0
   -3.3838   -0.4633   -0.0750 C   0  0  0  0  0
   -4.3119   -2.6812   -0.2237 C   0  0  0  0  0
    3.0961   -0.1508   -0.2806 C   0  0  0  0  0
    3.6397   -0.6234    0.8662 C   0  0  0  0  0
    1.1833    1.3003   -1.1032 C   0  0  0  0  0
   -3.1070    0.9660    0.2310 C   0  0  0  0  0
    3.5413   -0.7168   -1.6240 C   0  0  0  0  0
   -1.8826    1.6132   -0.3609 C   0  0  0  0  0
    6.9957   -1.7741    1.7605 C   0  0  0  0  0
    3.1316   -0.2436    2.2553 C   0  0  0  0  0
    0.5165    2.0255    0.1005 C   0  0  0  0  0
    1.7516    1.5624    0.9034 C   0  0  0  0  0
    8.0465   -1.0237    2.5212 C   0  0  0  0  0
   -4.3765    3.6389    2.0131 C   0  0  0  0  0
    4.7930   -1.5950    0.9238 C   0  0  0  0  0
   -3.2087   -2.6315   -0.9369 N   0  0  0  0  0
   -3.9010    1.6482    1.0002 N   0  0  0  0  0
    2.1047    0.7772   -0.2655 N   0  0  0  0  0
   -5.0902   -3.7885   -0.0936 N   0  0  0  0  0
   -0.7941    1.4832    0.4559 N   0  0  0  0  0
    2.8735   -1.7056   -2.0248 O   0  0  0  0  0
    0.9531    1.1670   -2.2823 O   0  0  0  0  0
    4.5161   -0.1183   -2.1492 O   0  0  0  0  0
   -1.9859    2.1536   -1.4502 O   0  0  0  0  0
    7.1418   -2.9097    1.3290 O   0  0  0  0  0
    5.8676   -1.0056    1.6254 O   0  0  0  0  0
   -3.4579    2.9679    1.1645 O   0  0  0  0  0
   -4.7705   -1.2340    0.5765 S   0  0  0  0  0
    1.4380    0.4362    2.2817 S   0  0  0  0  0
  1 17  1  0  0  0
  2  7  1  0  0  0
  2 29  1  0  0  0
  3 20  1  0  0  0
  3 29  1  0  0  0
  4  8  1  0  0  0
  4 19  1  0  0  0
  6 19  1  0  0  0
  7  9  1  0  0  0
  8 22  1  0  0  0
  9 21  1  0  0  0
 10 27  1  0  0  0
 11  5  1  0  0  0
 11 30  1  0  0  0
 12  6  1  0  0  0
 12 13  1  0  0  0
 12 21  1  0  0  0
 13 19  1  0  0  0
 13 30  1  0  0  0
 14 10  1  0  0  0
 15 28  1  0  0  0
 16  5  1  0  0  0
 16 27  1  0  0  0
 18 28  1  0  0  0
  1  2  2  0  0  0
  3 17  2  0  0  0
  4  5  2  0  0  0
  6 23  2  0  0  0
  7 18  2  0  0  0
  8 24  2  0  0  0
  9 25  2  0  0  0
 10 26  2  0  0  0
M  CHG  1  22  -1
M  END
> <rmsd>
0.0815561041

$$$$
ZINC04468780


 30 32  0  0  0  0  0  0  0  0999 V2000
   -4.4869   -1.1675    0.4478 C   0  0  0  0  0
   -3.4002   -0.4796   -0.0502 C   0  0  0  0  0
   -2.9975   -2.4345   -0.9591 C   0  0  0  0  0
    3.0784   -0.1616   -0.2847 C   0  0  0  0  0
    3.6272   -0.6224    0.8646 C   0  0  0  0  0
    1.1606    1.2791   -1.1138 C   0  0  0  0  0
   -3.1240    0.9530    0.2407 C   0  0  0  0  0
    3.5190   -0.7403   -1.6242 C   0  0  0  0  0
   -1.9026    1.5957   -0.3623 C   0  0  0  0  0
    6.9880   -1.7605    1.7567 C   0  0  0  0  0
    3.1241   -0.2297    2.2519 C   0  0  0  0  0
    0.4978    2.0153    0.0854 C   0  0  0  0  0
    1.7366    1.5615    0.8879 C   0  0  0  0  0
    8.0409   -1.0014    2.5058 C   0  0  0  0  0
   -4.3895    3.6416    2.0017 C   0  0  0  0  0
    4.7818   -1.5920    0.9271 C   0  0  0  0  0
   -2.5449   -1.2046   -0.8567 N   0  0  0  0  0
   -3.9156    1.6417    1.0064 N   0  0  0  0  0
    2.0860    0.7653   -0.2747 N   0  0  0  0  0
   -2.3941   -3.4154   -1.6814 N   0  0  0  0  0
   -0.8107    1.4750    0.4513 N   0  0  0  0  0
    2.8507   -1.7336   -2.0127 O   0  0  0  0  0
    0.9259    1.1341   -2.2906 O   0  0  0  0  0
    4.4909   -0.1457   -2.1591 O   0  0  0  0  0
   -2.0110    2.1254   -1.4565 O   0  0  0  0  0
    7.1338   -2.9000    1.3357 O   0  0  0  0  0
    5.8585   -0.9946    1.6185 O   0  0  0  0  0
   -3.4736    2.9635    1.1560 O   0  0  0  0  0
   -4.4473   -2.7883   -0.1116 S   0  0  0  0  0
    1.4298    0.4485    2.2784 S   0  0  0  0  0
  1 29  1  0  0  0
  2  7  1  0  0  0
  2 17  1  0  0  0
  3 20  1  0  0  0
  3 29  1  0  0  0
  4  8  1  0  0  0
  4 19  1  0  0  0
  6 19  1  0  0  0
  7  9  1  0  0  0
  8 22  1  0  0  0
  9 21  1  0  0  0
 10 27  1  0  0  0
 11  5  1  0  0  0
 11 30  1  0  0  0
 12  6  1  0  0  0
 12 13  1  0  0  0
 12 21  1  0  0  0
 13 19  1  0  0  0
 13 30  1  0  0  0
 14 10  1  0  0  0
 15 28  1  0  0  0
 16  5  1  0  0  0
 16 27  1  0  0  0
 18 28  1  0  0  0
  1  2  2  0  0  0
  3 17  2  0  0  0
  4  5  2  0  0  0
  6 23  2  0  0  0
  7 18  2  0  0  0
  8 24  2  0  0  0
  9 25  2  0  0  0
 10 26  2  0  0  0
M  CHG  1  22  -1
M  END
> <rmsd>
0.102891892

$$$$
ZINC04468780


 30 32  0  0  0  0  0  0  0  0999 V2000
   -4.2082   -1.2863    0.2908 C   0  0  0  0  0
   -3.1732   -0.4827   -0.1391 C   0  0  0  0  0
   -2.5626   -2.3531   -1.1080 C   0  0  0  0  0
    3.2532    0.4284   -0.1197 C   0  0  0  0  0
    3.8031   -0.0291    1.0303 C   0  0  0  0  0
    1.2403    1.7239   -0.9628 C   0  0  0  0  0
   -3.0393    0.9554    0.2175 C   0  0  0  0  0
    3.7897   -0.0510   -1.4635 C   0  0  0  0  0
   -1.8625    1.7307   -0.3141 C   0  0  0  0  0
    7.2224   -0.8958    2.0018 C   0  0  0  0  0
    3.2199    0.2577    2.4121 C   0  0  0  0  0
    0.4729    2.3460    0.2387 C   0  0  0  0  0
    1.7205    1.9723    1.0684 C   0  0  0  0  0
    8.1755   -0.0771    2.8186 C   0  0  0  0  0
   -4.6044    3.4421    2.0337 C   0  0  0  0  0
    5.0390   -0.8923    1.0978 C   0  0  0  0  0
   -2.2284   -1.0928   -0.9410 N   0  0  0  0  0
   -3.9160    1.5370    0.9795 N   0  0  0  0  0
    2.1802    1.2608   -0.1105 N   0  0  0  0  0
   -1.8480   -3.2441   -1.8450 N   0  0  0  0  0
   -0.7921    1.6748    0.5342 N   0  0  0  0  0
    3.2287   -1.0834   -1.9150 O   0  0  0  0  0
    1.0594    1.6081   -2.1523 O   0  0  0  0  0
    4.7204    0.6509   -1.9383 O   0  0  0  0  0
   -1.9823    2.2942   -1.3901 O   0  0  0  0  0
    7.4861   -1.9988    1.5424 O   0  0  0  0  0
    6.0326   -0.2298    1.8517 O   0  0  0  0  0
   -3.6023    2.8857    1.1968 O   0  0  0  0  0
   -4.0014   -2.8718   -0.3295 S   0  0  0  0  0
    1.4707    0.7784    2.4021 S   0  0  0  0  0
  1 29  1  0  0  0
  2  7  1  0  0  0
  2 17  1  0  0  0
  3 20  1  0  0  0
  3 29  1  0  0  0
  4  8  1  0  0  0
  4 19  1  0  0  0
  6 19  1  0  0  0
  7  9  1  0  0  0
  8 22  1  0  0  0
  9 21  1  0  0  0
 10 27  1  0  0  0
 11  5  1  0  0  0
 11 30  1  0  0  0
 12  6  1  0  0  0
 12 13  1  0  0  0
 12 21  1  0  0  0
 13 19  1  0  0  0
 13 30  1  0  0  0
 14 10  1  0  0  0
 15 28  1  0  0  0
 16  5  1  0  0  0
 16 27  1  0  0  0
 18 28  1  0  0  0
  1  2  2  0  0  0
  3 17  2  0  0  0
  4  5  2  0  0  0
  6 23  2  0  0  0
  7 18  2  0  0  0
  8 24  2  0  0  0
  9 25  2  0  0  0
 10 26  2  0  0  0
M  CHG  1  22  -1
M  END
> <rmsd>
0.402820855

$$$$
ZINC16029727


 30 32  0  0  0  0  0  0  0  0999 V2000
   -2.6643   -1.2813   -0.9251 C   0  0  0  0  0
   -3.3798   -0.4392   -0.0999 C   0  0  0  0  0
   -4.2356   -2.6812   -0.3078 C   0  0  0  0  0
    3.4973    0.8513   -0.5695 C   0  0  0  0  0
    4.4231    1.0123    0.4057 C   0  0  0  0  0
    1.1186    1.5121   -1.1577 C   0  0  0  0  0
   -3.1441    0.9870    0.2516 C   0  0  0  0  0
    3.9018    0.2517   -1.9108 C   0  0  0  0  0
   -1.9578    1.6974   -0.3455 C   0  0  0  0  0
    7.3190   -0.9665    1.4473 C   0  0  0  0  0
    4.1485    1.7584    1.7095 C   0  0  0  0  0
    0.4368    2.1762    0.0725 C   0  0  0  0  0
    1.6420    1.6378    0.8741 C   0  0  0  0  0
    7.4139   -1.9034    2.6133 C   0  0  0  0  0
   -4.4577    3.5482    2.1614 C   0  0  0  0  0
    5.8397    0.4971    0.3280 C   0  0  0  0  0
   -3.1532   -2.5675   -1.0451 N   0  0  0  0  0
   -3.9408    1.6130    1.0645 N   0  0  0  0  0
    2.2167    1.2735   -0.4082 N   0  0  0  0  0
   -4.9722   -3.8189   -0.1996 N   0  0  0  0  0
   -0.8438    1.5766    0.4390 N   0  0  0  0  0
    3.8055   -1.0018   -1.9768 O   0  0  0  0  0
    0.8449    1.3347   -2.3215 O   0  0  0  0  0
    4.2771    1.0915   -2.7703 O   0  0  0  0  0
   -2.1072    2.2727   -1.4114 O   0  0  0  0  0
    8.2386   -0.7422    0.6721 O   0  0  0  0  0
    6.0665   -0.4106    1.3857 O   0  0  0  0  0
   -3.5389    2.9406    1.2665 O   0  0  0  0  0
   -4.7225   -1.2807    0.5561 S   0  0  0  0  0
    2.7052    2.8742    1.6533 S   0  0  0  0  0
  1 17  1  0  0  0
  2  7  1  0  0  0
  2 29  1  0  0  0
  3 20  1  0  0  0
  3 29  1  0  0  0
  4  8  1  0  0  0
  4 19  1  0  0  0
  6 19  1  0  0  0
  7  9  1  0  0  0
  8 22  1  0  0  0
  9 21  1  0  0  0
 10 27  1  0  0  0
 11  5  1  0  0  0
 11 30  1  0  0  0
 12  6  1  0  0  0
 12 13  1  0  0  0
 12 21  1  0  0  0
 13 19  1  0  0  0
 13 30  1  0  0  0
 14 10  1  0  0  0
 15 28  1  0  0  0
 16  5  1  0  0  0
 16 27  1  0  0  0
 18 28  1  0  0  0
  1  2  2  0  0  0
  3 17  2  0  0  0
  4  5  2  0  0  0
  6 23  2  0  0  0
  7 18  2  0  0  0
  8 24  2  0  0  0
  9 25  2  0  0  0
 10 26  2  0  0  0
M  CHG  1  22  -1
M  END
> <rmsd>
0.175734654

$$$$
ZINC16029727


 30 32  0  0  0  0  0  0  0  0999 V2000
   -2.8653   -1.4215   -0.7543 C   0  0  0  0  0
   -3.5152   -0.4597   -0.0095 C   0  0  0  0  0
   -4.5672   -2.6257   -0.0741 C   0  0  0  0  0
    3.4575    0.1733   -0.4101 C   0  0  0  0  0
    4.3776    0.3232    0.5723 C   0  0  0  0  0
    1.1588    0.9981   -1.1003 C   0  0  0  0  0
   -3.1570    0.9619    0.2429 C   0  0  0  0  0
    3.8284   -0.5582   -1.6945 C   0  0  0  0  0
   -1.9013    1.5171   -0.3761 C   0  0  0  0  0
    7.0641   -1.8231    1.8225 C   0  0  0  0  0
    4.1499    1.1858    1.8116 C   0  0  0  0  0
    0.5195    1.8102    0.0620 C   0  0  0  0  0
    1.6572    1.2275    0.9287 C   0  0  0  0  0
    7.0539   -2.6752    3.0554 C   0  0  0  0  0
   -4.2648    3.7651    1.9304 C   0  0  0  0  0
    5.7427   -0.3207    0.5654 C   0  0  0  0  0
   -3.4668   -2.6643   -0.7921 N   0  0  0  0  0
   -3.9073    1.7152    0.9893 N   0  0  0  0  0
    2.2180    0.7189   -0.3099 N   0  0  0  0  0
   -5.4058   -3.6819    0.0992 N   0  0  0  0  0
   -0.8163    1.3562    0.4409 N   0  0  0  0  0
    3.6199   -1.7995   -1.6715 O   0  0  0  0  0
    0.8898    0.7597   -2.2543 O   0  0  0  0  0
    4.2928    0.1785   -2.6036 O   0  0  0  0  0
   -1.9800    2.0226   -1.4843 O   0  0  0  0  0
    8.0132   -1.7401    1.0548 O   0  0  0  0  0
    5.8684   -1.1638    1.6913 O   0  0  0  0  0
   -3.3900    3.0130    1.1038 O   0  0  0  0  0
   -4.9395   -1.1269    0.6742 S   0  0  0  0  0
    2.8149    2.4186    1.6407 S   0  0  0  0  0
  1 17  1  0  0  0
  2  7  1  0  0  0
  2 29  1  0  0  0
  3 20  1  0  0  0
  3 29  1  0  0  0
  4  8  1  0  0  0
  4 19  1  0  0  0
  6 19  1  0  0  0
  7  9  1  0  0  0
  8 22  1  0  0  0
  9 21  1  0  0  0
 10 27  1  0  0  0
 11  5  1  0  0  0
 11 30  1  0  0  0
 12  6  1  0  0  0
 12 13  1  0  0  0
 12 21  1  0  0  0
 13 19  1  0  0  0
 13 30  1  0  0  0
 14 10  1  0  0  0
 15 28  1  0  0  0
 16  5  1  0  0  0
 16 27  1  0  0  0
 18 28  1  0  0  0
  1  2  2  0  0  0
  3 17  2  0  0  0
  4  5  2  0  0  0
  6 23  2  0  0  0
  7 18  2  0  0  0
  8 24  2  0  0  0
  9 25  2  0  0  0
 10 26  2  0  0  0
M  CHG  1  22  -1
M  END
> <rmsd>
0.198602885

$$$$
ZINC08739991


 30 32  0  0  0  0  0  0  0  0999 V2000
   -4.4385   -1.2678    0.3744 C   0  0  0  0  0
   -3.4025   -0.4610   -0.0474 C   0  0  0  0  0
   -3.3507   -2.7354   -0.8390 C   0  0  0  0  0
    3.0770   -0.1627   -0.2841 C   0  0  0  0  0
    3.6248   -0.6264    0.8644 C   0  0  0  0  0
    1.1633    1.2848   -1.1109 C   0  0  0  0  0
   -3.1217    0.9704    0.2450 C   0  0  0  0  0
    3.5152   -0.7413   -1.6245 C   0  0  0  0  0
   -1.8986    1.6100   -0.3579 C   0  0  0  0  0
    6.9825   -1.7758    1.7539 C   0  0  0  0  0
    3.1235   -0.2337    2.2523 C   0  0  0  0  0
    0.5032    2.0217    0.0893 C   0  0  0  0  0
    1.7409    1.5632    0.8908 C   0  0  0  0  0
    8.0380   -1.0208    2.5034 C   0  0  0  0  0
   -4.3783    3.6611    2.0093 C   0  0  0  0  0
    4.7764   -1.5997    0.9254 C   0  0  0  0  0
   -4.4107   -2.5722   -0.0789 N   0  0  0  0  0
   -3.9109    1.6607    1.0117 N   0  0  0  0  0
    2.0874    0.7672   -0.2728 N   0  0  0  0  0
   -3.0170   -3.9051   -1.4467 N   0  0  0  0  0
   -0.8068    1.4850    0.4551 N   0  0  0  0  0
    2.8438   -1.7322   -2.0138 O   0  0  0  0  0
    0.9276    1.1417   -2.2878 O   0  0  0  0  0
    4.4888   -0.1492   -2.1592 O   0  0  0  0  0
   -2.0058    2.1412   -1.4514 O   0  0  0  0  0
    7.1246   -2.9154    1.3316 O   0  0  0  0  0
    5.8553   -1.0063    1.6170 O   0  0  0  0  0
   -3.4647    2.9810    1.1625 O   0  0  0  0  0
   -2.3436   -1.3623   -1.0512 S   0  0  0  0  0
    1.4313    0.4497    2.2803 S   0  0  0  0  0
  1 17  1  0  0  0
  2  7  1  0  0  0
  2 29  1  0  0  0
  3 20  1  0  0  0
  3 29  1  0  0  0
  4  8  1  0  0  0
  4 19  1  0  0  0
  6 19  1  0  0  0
  7  9  1  0  0  0
  8 22  1  0  0  0
  9 21  1  0  0  0
 10 27  1  0  0  0
 11  5  1  0  0  0
 11 30  1  0  0  0
 12  6  1  0  0  0
 12 13  1  0  0  0
 12 21  1  0  0  0
 13 19  1  0  0  0
 13 30  1  0  0  0
 14 10  1  0  0  0
 15 28  1  0  0  0
 16  5  1  0  0  0
 16 27  1  0  0  0
 18 28  1  0  0  0
  1  2  2  0  0  0
  3 17  2  0  0  0
  4  5  2  0  0  0
  6 23  2  0  0  0
  7 18  2  0  0  0
  8 24  2  0  0  0
  9 25  2  0  0  0
 10 26  2  0  0  0
M  CHG  1  22  -1
M  END
> <rmsd>
0.120306477

$$$$
ZINC08739991


 30 32  0  0  0  0  0  0  0  0999 V2000
   -4.1487   -1.3780    0.2168 C   0  0  0  0  0
   -3.1772   -0.4644   -0.1349 C   0  0  0  0  0
   -2.8913   -2.6900   -1.0110 C   0  0  0  0  0
    3.2522    0.4249   -0.1192 C   0  0  0  0  0
    3.8013   -0.0351    1.0302 C   0  0  0  0  0
    1.2431    1.7276   -0.9602 C   0  0  0  0  0
   -3.0383    0.9730    0.2225 C   0  0  0  0  0
    3.7862   -0.0556   -1.4636 C   0  0  0  0  0
   -1.8592    1.7446   -0.3095 C   0  0  0  0  0
    7.2182   -0.9140    1.9990 C   0  0  0  0  0
    3.2200    0.2528    2.4126 C   0  0  0  0  0
    0.4787    2.3516    0.2421 C   0  0  0  0  0
    1.7255    1.9732    1.0709 C   0  0  0  0  0
    8.1747   -0.0990    2.8157 C   0  0  0  0  0
   -4.5938    3.4639    2.0411 C   0  0  0  0  0
    5.0343   -0.9026    1.0965 C   0  0  0  0  0
   -3.9867   -2.6545   -0.2850 N   0  0  0  0  0
   -3.9125    1.5571    0.9853 N   0  0  0  0  0
    2.1821    1.2608   -0.1088 N   0  0  0  0  0
   -2.4321   -3.7986   -1.6504 N   0  0  0  0  0
   -0.7884    1.6845    0.5381 N   0  0  0  0  0
    3.2214   -1.0858   -1.9153 O   0  0  0  0  0
    1.0611    1.6131   -2.1496 O   0  0  0  0  0
    4.7190    0.6434   -1.9386 O   0  0  0  0  0
   -1.9778    2.3091   -1.3850 O   0  0  0  0  0
    7.4779   -2.0176    1.5388 O   0  0  0  0  0
    6.0307   -0.2439    1.8500 O   0  0  0  0  0
   -3.5941    2.9046    1.2032 O   0  0  0  0  0
   -2.0074   -1.2242   -1.1327 S   0  0  0  0  0
    1.4725    0.7795    2.4040 S   0  0  0  0  0
  1 17  1  0  0  0
  2  7  1  0  0  0
  2 29  1  0  0  0
  3 20  1  0  0  0
  3 29  1  0  0  0
  4  8  1  0  0  0
  4 19  1  0  0  0
  6 19  1  0  0  0
  7  9  1  0  0  0
  8 22  1  0  0  0
  9 21  1  0  0  0
 10 27  1  0  0  0
 11  5  1  0  0  0
 11 30  1  0  0  0
 12  6  1  0  0  0
 12 13  1  0  0  0
 12 21  1  0  0  0
 13 19  1  0  0  0
 13 30  1  0  0  0
 14 10  1  0  0  0
 15 28  1  0  0  0
 16  5  1  0  0  0
 16 27  1  0  0  0
 18 28  1  0  0  0
  1  2  2  0  0  0
  3 17  2  0  0  0
  4  5  2  0  0  0
  6 23  2  0  0  0
  7 18  2  0  0  0
  8 24  2  0  0  0
  9 25  2  0  0  0
 10 26  2  0  0  0
M  CHG  1  22  -1
M  END
> <rmsd>
0.410947651

$$$$
ZINC04468780


 30 32  0  0  0  0  0  0  0  0999 V2000
   -2.2555   -1.1547   -0.9589 C   0  0  0  0  0
   -3.1565   -0.4824   -0.1600 C   0  0  0  0  0
   -4.1210   -2.4521   -0.1593 C   0  0  0  0  0
    3.2683    0.4389   -0.1121 C   0  0  0  0  0
    3.8149   -0.0252    1.0369 C   0  0  0  0  0
    1.2562    1.7366   -0.9538 C   0  0  0  0  0
   -3.0263    0.9536    0.2064 C   0  0  0  0  0
    3.8102   -0.0309   -1.4571 C   0  0  0  0  0
   -1.8489    1.7342   -0.3160 C   0  0  0  0  0
    7.2321   -0.8928    2.0147 C   0  0  0  0  0
    3.2264    0.2516    2.4185 C   0  0  0  0  0
    0.4836    2.3496    0.2491 C   0  0  0  0  0
    1.7289    1.9725    1.0807 C   0  0  0  0  0
    8.1811   -0.0779    2.8402 C   0  0  0  0  0
   -4.6018    3.4258    2.0333 C   0  0  0  0  0
    5.0519   -0.8869    1.1031 C   0  0  0  0  0
   -4.2271   -1.2245    0.2991 N   0  0  0  0  0
   -3.9066    1.5287    0.9691 N   0  0  0  0  0
    2.1939    1.2694   -0.1012 N   0  0  0  0  0
   -5.0102   -3.4467    0.1014 N   0  0  0  0  0
   -0.7813    1.6744    0.5358 N   0  0  0  0  0
    3.2525   -1.0612   -1.9173 O   0  0  0  0  0
    1.0797    1.6283   -2.1446 O   0  0  0  0  0
    4.7415    0.6756   -1.9240 O   0  0  0  0  0
   -1.9658    2.3045   -1.3886 O   0  0  0  0  0
    7.4992   -1.9924    1.5491 O   0  0  0  0  0
    6.0418   -0.2278    1.8648 O   0  0  0  0  0
   -3.5958    2.8765    1.1964 O   0  0  0  0  0
   -2.7581   -2.7835   -1.1481 S   0  0  0  0  0
    1.4763    0.7695    2.4057 S   0  0  0  0  0
  1 29  1  0  0  0
  2  7  1  0  0  0
  2 17  1  0  0  0
  3 20  1  0  0  0
  3 29  1  0  0  0
  4  8  1  0  0  0
  4 19  1  0  0  0
  6 19  1  0  0  0
  7  9  1  0  0  0
  8 22  1  0  0  0
  9 21  1  0  0  0
 10 27  1  0  0  0
 11  5  1  0  0  0
 11 30  1  0  0  0
 12  6  1  0  0  0
 12 13  1  0  0  0
 12 21  1  0  0  0
 13 19  1  0  0  0
 13 30  1  0  0  0
 14 10  1  0  0  0
 15 28  1  0  0  0
 16  5  1  0  0  0
 16 27  1  0  0  0
 18 28  1  0  0  0
  1  2  2  0  0  0
  3 17  2  0  0  0
  4  5  2  0  0  0
  6 23  2  0  0  0
  7 18  2  0  0  0
  8 24  2  0  0  0
  9 25  2  0  0  0
 10 26  2  0  0  0
M  CHG  1  22  -1
M  END
> <rmsd>
0.360028923

$$$$
ZINC04468780


 30 32  0  0  0  0  0  0  0  0999 V2000
   -2.5780   -1.2644   -0.8726 C   0  0  0  0  0
   -3.3840   -0.4821   -0.0723 C   0  0  0  0  0
   -4.5211   -2.3538    0.0439 C   0  0  0  0  0
    3.0948   -0.1511   -0.2824 C   0  0  0  0  0
    3.6405   -0.6185    0.8656 C   0  0  0  0  0
    1.1773    1.2917   -1.1086 C   0  0  0  0  0
   -3.1113    0.9490    0.2290 C   0  0  0  0  0
    3.5410   -0.7201   -1.6243 C   0  0  0  0  0
   -1.8891    1.5979   -0.3656 C   0  0  0  0  0
    7.0003   -1.7565    1.7617 C   0  0  0  0  0
    3.1319   -0.2359    2.2537 C   0  0  0  0  0
    0.5090    2.0188    0.0932 C   0  0  0  0  0
    1.7459    1.5618    0.8969 C   0  0  0  0  0
    8.0493   -1.0006    2.5194 C   0  0  0  0  0
   -4.3877    3.6237    2.0034 C   0  0  0  0  0
    4.7966   -1.5865    0.9256 C   0  0  0  0  0
   -4.4989   -1.1049    0.4538 N   0  0  0  0  0
   -3.9068    1.6313    0.9965 N   0  0  0  0  0
    2.1007    0.7740   -0.2697 N   0  0  0  0  0
   -5.4858   -3.2521    0.3763 N   0  0  0  0  0
   -0.7997    1.4737    0.4510 N   0  0  0  0  0
    2.8759   -1.7120   -2.0216 O   0  0  0  0  0
    0.9468    1.1541   -2.2871 O   0  0  0  0  0
    4.5137   -0.1203   -2.1519 O   0  0  0  0  0
   -1.9946    2.1346   -1.4565 O   0  0  0  0  0
    7.1495   -2.8930    1.3336 O   0  0  0  0  0
    5.8699   -0.9917    1.6247 O   0  0  0  0  0
   -3.4676    2.9528    1.1564 O   0  0  0  0  0
   -3.2320   -2.8464   -0.9761 S   0  0  0  0  0
    1.4364    0.4391    2.2789 S   0  0  0  0  0
  1 29  1  0  0  0
  2  7  1  0  0  0
  2 17  1  0  0  0
  3 20  1  0  0  0
  3 29  1  0  0  0
  4  8  1  0  0  0
  4 19  1  0  0  0
  6 19  1  0  0  0
  7  9  1  0  0  0
  8 22  1  0  0  0
  9 21  1  0  0  0
 10 27  1  0  0  0
 11  5  1  0  0  0
 11 30  1  0  0  0
 12  6  1  0  0  0
 12 13  1  0  0  0
 12 21  1  0  0  0
 13 19  1  0  0  0
 13 30  1  0  0  0
 14 10  1  0  0  0
 15 28  1  0  0  0
 16  5  1  0  0  0
 16 27  1  0  0  0
 18 28  1  0  0  0
  1  2  2  0  0  0
  3 17  2  0  0  0
  4  5  2  0  0  0
  6 23  2  0  0  0
  7 18  2  0  0  0
  8 24  2  0  0  0
  9 25  2  0  0  0
 10 26  2  0  0  0
M  CHG  1  22  -1
M  END
> <rmsd>
0.0605438687

$$$$
ZINC05223872


 30 32  0  0  0  0  0  0  0  0999 V2000
   -4.6630   -1.0750    0.5473 C   0  0  0  0  0
   -3.5385   -0.4744    0.0212 C   0  0  0  0  0
   -3.2567   -2.4853   -0.8077 C   0  0  0  0  0
    3.4455    0.1561   -0.4165 C   0  0  0  0  0
    4.3675    0.3204    0.5613 C   0  0  0  0  0
    1.1392    0.9523   -1.0987 C   0  0  0  0  0
   -3.1757    0.9496    0.2534 C   0  0  0  0  0
    3.8141   -0.5771   -1.7006 C   0  0  0  0  0
   -1.9199    1.4928   -0.3759 C   0  0  0  0  0
    7.0856   -1.7885    1.8070 C   0  0  0  0  0
    4.1255    1.1635    1.8133 C   0  0  0  0  0
    0.5027    1.7850    0.0532 C   0  0  0  0  0
    1.6407    1.2096    0.9248 C   0  0  0  0  0
    7.0911   -2.6369    3.0425 C   0  0  0  0  0
   -4.2723    3.7787    1.9044 C   0  0  0  0  0
    5.7404   -0.3066    0.5508 C   0  0  0  0  0
   -2.7306   -1.2816   -0.7557 N   0  0  0  0  0
   -3.9224    1.7151    0.9909 N   0  0  0  0  0
    2.2085    0.7073   -0.3120 N   0  0  0  0  0
   -2.7154   -3.5290   -1.4900 N   0  0  0  0  0
   -0.8335    1.3401    0.4409 N   0  0  0  0  0
    3.6170   -1.8200   -1.6714 O   0  0  0  0  0
    0.8612    0.6829   -2.2435 O   0  0  0  0  0
    4.2656    0.1601   -2.6158 O   0  0  0  0  0
   -1.9995    1.9832   -1.4906 O   0  0  0  0  0
    8.0304   -1.6961    1.0351 O   0  0  0  0  0
    5.8813   -1.1445    1.6788 O   0  0  0  0  0
   -3.4014    3.0129    1.0864 O   0  0  0  0  0
   -4.7226   -2.7164    0.0542 S   0  0  0  0  0
    2.7922    2.3993    1.6439 S   0  0  0  0  0
  1 29  1  0  0  0
  2  7  1  0  0  0
  2 17  1  0  0  0
  3 20  1  0  0  0
  3 29  1  0  0  0
  4  8  1  0  0  0
  4 19  1  0  0  0
  6 19  1  0  0  0
  7  9  1  0  0  0
  8 22  1  0  0  0
  9 21  1  0  0  0
 10 27  1  0  0  0
 11  5  1  0  0  0
 11 30  1  0  0  0
 12  6  1  0  0  0
 12 13  1  0  0  0
 12 21  1  0  0  0
 13 19  1  0  0  0
 13 30  1  0  0  0
 14 10  1  0  0  0
 15 28  1  0  0  0
 16  5  1  0  0  0
 16 27  1  0  0  0
 18 28  1  0  0  0
  1  2  2  0  0  0
  3 17  2  0  0  0
  4  5  2  0  0  0
  6 23  2  0  0  0
  7 18  2  0  0  0
  8 24  2  0  0  0
  9 25  2  0  0  0
 10 26  2  0  0  0
M  CHG  1  22  -1
M  END
> <rmsd>
0.166342661

$$$$
ZINC05223872


 30 32  0  0  0  0  0  0  0  0999 V2000
   -4.4558   -1.1956    0.4304 C   0  0  0  0  0
   -3.4027   -0.4586   -0.0693 C   0  0  0  0  0
   -2.9623   -2.3699   -1.0506 C   0  0  0  0  0
    3.4841    0.8355   -0.5824 C   0  0  0  0  0
    4.4113    1.0116    0.3886 C   0  0  0  0  0
    1.0999    1.4658   -1.1624 C   0  0  0  0  0
   -3.1633    0.9720    0.2619 C   0  0  0  0  0
    3.8855    0.2341   -1.9238 C   0  0  0  0  0
   -1.9769    1.6715   -0.3473 C   0  0  0  0  0
    7.3367   -0.9258    1.4254 C   0  0  0  0  0
    4.1253    1.7361    1.7039 C   0  0  0  0  0
    0.4196    2.1512    0.0594 C   0  0  0  0  0
    1.6254    1.6201    0.8655 C   0  0  0  0  0
    7.4483   -1.8576    2.5939 C   0  0  0  0  0
   -4.4682    3.5621    2.1381 C   0  0  0  0  0
    5.8341    0.5147    0.3071 C   0  0  0  0  0
   -2.5450   -1.1303   -0.9184 N   0  0  0  0  0
   -3.9573    1.6107    1.0674 N   0  0  0  0  0
    2.2056    1.2627   -0.4152 N   0  0  0  0  0
   -2.3465   -3.3077   -1.8182 N   0  0  0  0  0
   -0.8616    1.5595    0.4365 N   0  0  0  0  0
    3.8011   -1.0205   -1.9838 O   0  0  0  0  0
    0.8193    1.2560   -2.3190 O   0  0  0  0  0
    4.2467    1.0739   -2.7893 O   0  0  0  0  0
   -2.1272    2.2323   -1.4208 O   0  0  0  0  0
    8.2504   -0.6919    0.6459 O   0  0  0  0  0
    6.0769   -0.3865    1.3668 O   0  0  0  0  0
   -3.5524    2.9402    1.2502 O   0  0  0  0  0
   -4.3801   -2.7955   -0.1825 S   0  0  0  0  0
    2.6830    2.8543    1.6507 S   0  0  0  0  0
  1 29  1  0  0  0
  2  7  1  0  0  0
  2 17  1  0  0  0
  3 20  1  0  0  0
  3 29  1  0  0  0
  4  8  1  0  0  0
  4 19  1  0  0  0
  6 19  1  0  0  0
  7  9  1  0  0  0
  8 22  1  0  0  0
  9 21  1  0  0  0
 10 27  1  0  0  0
 11  5  1  0  0  0
 11 30  1  0  0  0
 12  6  1  0  0  0
 12 13  1  0  0  0
 12 21  1  0  0  0
 13 19  1  0  0  0
 13 30  1  0  0  0
 14 10  1  0  0  0
 15 28  1  0  0  0
 16  5  1  0  0  0
 16 27  1  0  0  0
 18 28  1  0  0  0
  1  2  2  0  0  0
  3 17  2  0  0  0
  4  5  2  0  0  0
  6 23  2  0  0  0
  7 18  2  0  0  0
  8 24  2  0  0  0
  9 25  2  0  0  0
 10 26  2  0  0  0
M  CHG  1  22  -1
M  END
> <rmsd>
0.193420634

$$$$
ZINC08739991


 30 32  0  0  0  0  0  0  0  0999 V2000
   -2.6779   -1.3588   -0.8507 C   0  0  0  0  0
   -3.3834   -0.4631   -0.0750 C   0  0  0  0  0
   -4.3114   -2.6810   -0.2235 C   0  0  0  0  0
    3.0964   -0.1502   -0.2808 C   0  0  0  0  0
    3.6401   -0.6226    0.8661 C   0  0  0  0  0
    1.1835    1.3007   -1.1035 C   0  0  0  0  0
   -3.1068    0.9663    0.2309 C   0  0  0  0  0
    3.5417   -0.7163   -1.6241 C   0  0  0  0  0
   -1.8823    1.6135   -0.3611 C   0  0  0  0  0
    5.3300   -3.7533    1.7201 C   0  0  0  0  0
    3.1320   -0.2428    2.2551 C   0  0  0  0  0
    0.5167    2.0260    0.1002 C   0  0  0  0  0
    1.7518    1.5630    0.9031 C   0  0  0  0  0
    4.7557   -4.9342    2.4424 C   0  0  0  0  0
   -4.3763    3.6393    2.0128 C   0  0  0  0  0
    4.7934   -1.5941    0.9238 C   0  0  0  0  0
   -3.2082   -2.6313   -0.9367 N   0  0  0  0  0
   -3.9007    1.6485    1.0001 N   0  0  0  0  0
    2.1050    0.7778   -0.2657 N   0  0  0  0  0
   -5.0896   -3.7883   -0.0932 N   0  0  0  0  0
   -0.7938    1.4837    0.4556 N   0  0  0  0  0
    2.8739   -1.7052   -2.0248 O   0  0  0  0  0
    0.9533    1.1673   -2.2825 O   0  0  0  0  0
    4.5164   -0.1178   -2.1494 O   0  0  0  0  0
   -1.9858    2.1539   -1.4505 O   0  0  0  0  0
    6.4823   -3.6931    1.3131 O   0  0  0  0  0
    4.3826   -2.7702    1.5893 O   0  0  0  0  0
   -3.4577    2.9683    1.1641 O   0  0  0  0  0
   -4.7701   -1.2337    0.5766 S   0  0  0  0  0
    1.4384    0.4370    2.2816 S   0  0  0  0  0
  1 17  1  0  0  0
  2  7  1  0  0  0
  2 29  1  0  0  0
  3 20  1  0  0  0
  3 29  1  0  0  0
  4  8  1  0  0  0
  4 19  1  0  0  0
  6 19  1  0  0  0
  7  9  1  0  0  0
  8 22  1  0  0  0
  9 21  1  0  0  0
 10 27  1  0  0  0
 11  5  1  0  0  0
 11 30  1  0  0  0
 12  6  1  0  0  0
 12 13  1  0  0  0
 12 21  1  0  0  0
 13 19  1  0  0  0
 13 30  1  0  0  0
 14 10  1  0  0  0
 15 28  1  0  0  0
 16  5  1  0  0  0
 16 27  1  0  0  0
 18 28  1  0  0  0
  1  2  2  0  0  0
  3 17  2  0  0  0
  4  5  2  0  0  0
  6 23  2  0  0  0
  7 18  2  0  0  0
  8 24  2  0  0  0
  9 25  2  0  0  0
 10 26  2  0  0  0
M  CHG  1  22  -1
M  END
> <rmsd>
0.0814919174

$$$$
ZINC08739991


 30 32  0  0  0  0  0  0  0  0999 V2000
   -2.3472   -1.2594   -0.9428 C   0  0  0  0  0
   -3.1576   -0.4632   -0.1610 C   0  0  0  0  0
   -3.8742   -2.7473   -0.4287 C   0  0  0  0  0
    3.2701    0.4372   -0.1087 C   0  0  0  0  0
    3.8148   -0.0316    1.0392 C   0  0  0  0  0
    1.2625    1.7435   -0.9478 C   0  0  0  0  0
   -3.0229    0.9714    0.2092 C   0  0  0  0  0
    3.8109   -0.0310   -1.4547 C   0  0  0  0  0
   -1.8428    1.7495   -0.3109 C   0  0  0  0  0
    5.7523   -3.0308    1.8372 C   0  0  0  0  0
    3.2268    0.2436    2.4213 C   0  0  0  0  0
    0.4915    2.3560    0.2564 C   0  0  0  0  0
    1.7353    1.9727    1.0875 C   0  0  0  0  0
    5.2634   -4.2872    2.4919 C   0  0  0  0  0
   -4.5909    3.4442    2.0418 C   0  0  0  0  0
    5.0491   -0.8974    1.1037 C   0  0  0  0  0
   -2.7563   -2.5696   -1.0971 N   0  0  0  0  0
   -3.9016    1.5475    0.9730 N   0  0  0  0  0
    2.1984    1.2712   -0.0961 N   0  0  0  0  0
   -4.5525   -3.9243   -0.3702 N   0  0  0  0  0
   -0.7757    1.6842    0.5410 N   0  0  0  0  0
    3.2500   -1.0583   -1.9177 O   0  0  0  0  0
    1.0860    1.6388   -2.1389 O   0  0  0  0  0
    4.7446    0.6737   -1.9196 O   0  0  0  0  0
   -1.9575    2.3229   -1.3822 O   0  0  0  0  0
    6.9077   -2.8509    1.4768 O   0  0  0  0  0
    4.7244   -2.1319    1.7080 O   0  0  0  0  0
   -3.5865    2.8937    1.2037 O   0  0  0  0  0
   -4.4899   -1.3812    0.4078 S   0  0  0  0  0
    1.4784    0.7673    2.4093 S   0  0  0  0  0
  1 17  1  0  0  0
  2  7  1  0  0  0
  2 29  1  0  0  0
  3 20  1  0  0  0
  3 29  1  0  0  0
  4  8  1  0  0  0
  4 19  1  0  0  0
  6 19  1  0  0  0
  7  9  1  0  0  0
  8 22  1  0  0  0
  9 21  1  0  0  0
 10 27  1  0  0  0
 11  5  1  0  0  0
 11 30  1  0  0  0
 12  6  1  0  0  0
 12 13  1  0  0  0
 12 21  1  0  0  0
 13 19  1  0  0  0
 13 30  1  0  0  0
 14 10  1  0  0  0
 15 28  1  0  0  0
 16  5  1  0  0  0
 16 27  1  0  0  0
 18 28  1  0  0  0
  1  2  2  0  0  0
  3 17  2  0  0  0
  4  5  2  0  0  0
  6 23  2  0  0  0
  7 18  2  0  0  0
  8 24  2  0  0  0
  9 25  2  0  0  0
 10 26  2  0  0  0
M  CHG  1  22  -1
M  END
> <rmsd>
0.360506445

$$$$
ZINC16029727


 30 32  0  0  0  0  0  0  0  0999 V2000
   -4.6118   -1.1853    0.4718 C   0  0  0  0  0
   -3.5339   -0.4542    0.0183 C   0  0  0  0  0
   -3.6141   -2.7550   -0.6904 C   0  0  0  0  0
    3.4385    0.1600   -0.4164 C   0  0  0  0  0
    4.3630    0.3159    0.5609 C   0  0  0  0  0
    1.1388    0.9842   -1.1039 C   0  0  0  0  0
   -3.1715    0.9687    0.2576 C   0  0  0  0  0
    3.8024   -0.5828   -1.6962 C   0  0  0  0  0
   -1.9171    1.5160   -0.3713 C   0  0  0  0  0
    7.0499   -1.8261    1.8176 C   0  0  0  0  0
    4.1424    1.1892    1.7940 C   0  0  0  0  0
    0.5061    1.8072    0.0544 C   0  0  0  0  0
    1.6461    1.2291    0.9211 C   0  0  0  0  0
    7.0430   -2.6680    3.0575 C   0  0  0  0  0
   -4.2661    3.7881    1.9264 C   0  0  0  0  0
    5.7266   -0.3311    0.5537 C   0  0  0  0  0
   -4.6597   -2.5047    0.0661 N   0  0  0  0  0
   -3.9170    1.7298    1.0008 N   0  0  0  0  0
    2.2006    0.7092   -0.3156 N   0  0  0  0  0
   -3.3498   -3.9629   -1.2561 N   0  0  0  0  0
   -0.8291    1.3594    0.4426 N   0  0  0  0  0
    3.5913   -1.8235   -1.6622 O   0  0  0  0  0
    0.8644    0.7369   -2.2547 O   0  0  0  0  0
    4.2647    0.1453   -2.6133 O   0  0  0  0  0
   -1.9993    2.0125   -1.4832 O   0  0  0  0  0
    7.9960   -1.7515    1.0453 O   0  0  0  0  0
    5.8552   -1.1652    1.6859 O   0  0  0  0  0
   -3.3964    3.0273    1.1025 O   0  0  0  0  0
   -2.5321   -1.4494   -0.9550 S   0  0  0  0  0
    2.8094    2.4235    1.6185 S   0  0  0  0  0
  1 17  1  0  0  0
  2  7  1  0  0  0
  2 29  1  0  0  0
  3 20  1  0  0  0
  3 29  1  0  0  0
  4  8  1  0  0  0
  4 19  1  0  0  0
  6 19  1  0  0  0
  7  9  1  0  0  0
  8 22  1  0  0  0
  9 21  1  0  0  0
 10 27  1  0  0  0
 11  5  1  0  0  0
 11 30  1  0  0  0
 12  6  1  0  0  0
 12 13  1  0  0  0
 12 21  1  0  0  0
 13 19  1  0  0  0
 13 30  1  0  0  0
 14 10  1  0  0  0
 15 28  1  0  0  0
 16  5  1  0  0  0
 16 27  1  0  0  0
 18 28  1  0  0  0
  1  2  2  0  0  0
  3 17  2  0  0  0
  4  5  2  0  0  0
  6 23  2  0  0  0
  7 18  2  0  0  0
  8 24  2  0  0  0
  9 25  2  0  0  0
 10 26  2  0  0  0
M  CHG  1  22  -1
M  END
> <rmsd>
0.168279231

$$$$
ZINC16029727


 30 32  0  0  0  0  0  0  0  0999 V2000
   -4.3942   -1.2959    0.3482 C   0  0  0  0  0
   -3.3977   -0.4389   -0.0697 C   0  0  0  0  0
   -3.2888   -2.6809   -0.9440 C   0  0  0  0  0
    3.4786    0.8384   -0.5841 C   0  0  0  0  0
    4.4092    1.0076    0.3851 C   0  0  0  0  0
    1.0980    1.4964   -1.1675 C   0  0  0  0  0
   -3.1586    0.9903    0.2668 C   0  0  0  0  0
    3.8761    0.2253   -1.9215 C   0  0  0  0  0
   -1.9743    1.6934   -0.3427 C   0  0  0  0  0
    7.3076   -0.9646    1.4322 C   0  0  0  0  0
    4.1417    1.7667    1.6828 C   0  0  0  0  0
    0.4228    2.1733    0.0593 C   0  0  0  0  0
    1.6311    1.6411    0.8605 C   0  0  0  0  0
    7.4068   -1.8902    2.6068 C   0  0  0  0  0
   -4.4601    3.5715    2.1578 C   0  0  0  0  0
    5.8248    0.4900    0.3057 C   0  0  0  0  0
   -4.3336   -2.5818   -0.1524 N   0  0  0  0  0
   -3.9508    1.6251    1.0773 N   0  0  0  0  0
    2.1994    1.2637   -0.4209 N   0  0  0  0  0
   -2.9312   -3.8160   -1.6016 N   0  0  0  0  0
   -0.8568    1.5789    0.4376 N   0  0  0  0  0
    3.7780   -1.0286   -1.9749 O   0  0  0  0  0
    0.8186    1.3081   -2.3283 O   0  0  0  0  0
    4.2483    1.0563   -2.7908 O   0  0  0  0  0
   -2.1281    2.2586   -1.4135 O   0  0  0  0  0
    8.2239   -0.7489    0.6505 O   0  0  0  0  0
    6.0556   -0.4077    1.3711 O   0  0  0  0  0
   -3.5463    2.9541    1.2646 O   0  0  0  0  0
   -2.3350   -1.2665   -1.1314 S   0  0  0  0  0
    2.6995    2.8837    1.6226 S   0  0  0  0  0
  1 17  1  0  0  0
  2  7  1  0  0  0
  2 29  1  0  0  0
  3 20  1  0  0  0
  3 29  1  0  0  0
  4  8  1  0  0  0
  4 19  1  0  0  0
  6 19  1  0  0  0
  7  9  1  0  0  0
  8 22  1  0  0  0
  9 21  1  0  0  0
 10 27  1  0  0  0
 11  5  1  0  0  0
 11 30  1  0  0  0
 12  6  1  0  0  0
 12 13  1  0  0  0
 12 21  1  0  0  0
 13 19  1  0  0  0
 13 30  1  0  0  0
 14 10  1  0  0  0
 15 28  1  0  0  0
 16  5  1  0  0  0
 16 27  1  0  0  0
 18 28  1  0  0  0
  1  2  2  0  0  0
  3 17  2  0  0  0
  4  5  2  0  0  0
  6 23  2  0  0  0
  7 18  2  0  0  0
  8 24  2  0  0  0
  9 25  2  0  0  0
 10 26  2  0  0  0
M  CHG  1  22  -1
M  END
> <rmsd>
0.206797212

$$$$
ZINC05223872


 30 32  0  0  0  0  0  0  0  0999 V2000
   -2.5770   -1.1897   -0.9370 C   0  0  0  0  0
   -3.3874   -0.4593   -0.0932 C   0  0  0  0  0
   -4.4646   -2.3680   -0.0144 C   0  0  0  0  0
    3.4997    0.8466   -0.5711 C   0  0  0  0  0
    4.4231    1.0165    0.4046 C   0  0  0  0  0
    1.1169    1.4785   -1.1551 C   0  0  0  0  0
   -3.1509    0.9690    0.2496 C   0  0  0  0  0
    3.9067    0.2558   -1.9155 C   0  0  0  0  0
   -1.9631    1.6745   -0.3499 C   0  0  0  0  0
    7.3470   -0.9253    1.4375 C   0  0  0  0  0
    4.1314    1.7307    1.7243 C   0  0  0  0  0
    0.4313    2.1539    0.0692 C   0  0  0  0  0
    1.6348    1.6181    0.8758 C   0  0  0  0  0
    7.4554   -1.8657    2.5994 C   0  0  0  0  0
   -4.4658    3.5434    2.1405 C   0  0  0  0  0
    5.8468    0.5219    0.3246 C   0  0  0  0  0
   -4.4705   -1.1331    0.4364 N   0  0  0  0  0
   -3.9486    1.6008    1.0571 N   0  0  0  0  0
    2.2201    1.2711   -0.4054 N   0  0  0  0  0
   -5.3937   -3.3061    0.3092 N   0  0  0  0  0
   -0.8505    1.5579    0.4372 N   0  0  0  0  0
    3.8241   -0.9984   -1.9853 O   0  0  0  0  0
    0.8408    1.2770   -2.3143 O   0  0  0  0  0
    4.2702    1.1025   -2.7734 O   0  0  0  0  0
   -2.1101    2.2431   -1.4197 O   0  0  0  0  0
    8.2633   -0.6845    0.6632 O   0  0  0  0  0
    6.0867   -0.3870    1.3784 O   0  0  0  0  0
   -3.5460    2.9293    1.2513 O   0  0  0  0  0
   -3.1852   -2.7869   -1.0787 S   0  0  0  0  0
    2.6880    2.8476    1.6741 S   0  0  0  0  0
  1 29  1  0  0  0
  2  7  1  0  0  0
  2 17  1  0  0  0
  3 20  1  0  0  0
  3 29  1  0  0  0
  4  8  1  0  0  0
  4 19  1  0  0  0
  6 19  1  0  0  0
  7  9  1  0  0  0
  8 22  1  0  0  0
  9 21  1  0  0  0
 10 27  1  0  0  0
 11  5  1  0  0  0
 11 30  1  0  0  0
 12  6  1  0  0  0
 12 13  1  0  0  0
 12 21  1  0  0  0
 13 19  1  0  0  0
 13 30  1  0  0  0
 14 10  1  0  0  0
 15 28  1  0  0  0
 16  5  1  0  0  0
 16 27  1  0  0  0
 18 28  1  0  0  0
  1  2  2  0  0  0
  3 17  2  0  0  0
  4  5  2  0  0  0
  6 23  2  0  0  0
  7 18  2  0  0  0
  8 24  2  0  0  0
  9 25  2  0  0  0
 10 26  2  0  0  0
M  CHG  1  22  -1
M  END
> <rmsd>
0.16781424

$$$$
ZINC05223872


 30 32  0  0  0  0  0  0  0  0999 V2000
   -2.7677   -1.3407   -0.7692 C   0  0  0  0  0
   -3.5226   -0.4796   -0.0007 C   0  0  0  0  0
   -4.7695   -2.2733    0.1930 C   0  0  0  0  0
    3.4616    0.1676   -0.4117 C   0  0  0  0  0
    4.3801    0.3276    0.5701 C   0  0  0  0  0
    1.1559    0.9635   -1.0964 C   0  0  0  0  0
   -3.1634    0.9437    0.2417 C   0  0  0  0  0
    3.8358   -0.5567   -1.6992 C   0  0  0  0  0
   -1.9066    1.4933   -0.3801 C   0  0  0  0  0
    7.0983   -1.7837    1.8113 C   0  0  0  0  0
    4.1323    1.1623    1.8266 C   0  0  0  0  0
    0.5140    1.7877    0.0586 C   0  0  0  0  0
    1.6503    1.2091    0.9303 C   0  0  0  0  0
    7.1016   -2.6398    3.0414 C   0  0  0  0  0
   -4.2710    3.7601    1.9068 C   0  0  0  0  0
    5.7542   -0.2966    0.5601 C   0  0  0  0  0
   -4.6710   -1.0124    0.5515 N   0  0  0  0  0
   -3.9140    1.7031    0.9816 N   0  0  0  0  0
    2.2231    0.7157   -0.3078 N   0  0  0  0  0
   -5.7851   -3.0978    0.5628 N   0  0  0  0  0
   -0.8226    1.3377    0.4393 N   0  0  0  0  0
    3.6410   -1.8003   -1.6785 O   0  0  0  0  0
    0.8821    0.7007   -2.2437 O   0  0  0  0  0
    4.2888    0.1871   -2.6082 O   0  0  0  0  0
   -1.9836    1.9906   -1.4920 O   0  0  0  0  0
    8.0455   -1.6846    1.0431 O   0  0  0  0  0
    5.8932   -1.1413    1.6833 O   0  0  0  0  0
   -3.3959    3.0013    1.0869 O   0  0  0  0  0
   -3.5157   -2.8836   -0.8074 S   0  0  0  0  0
    2.7971    2.3964    1.6606 S   0  0  0  0  0
  1 29  1  0  0  0
  2  7  1  0  0  0
  2 17  1  0  0  0
  3 20  1  0  0  0
  3 29  1  0  0  0
  4  8  1  0  0  0
  4 19  1  0  0  0
  6 19  1  0  0  0
  7  9  1  0  0  0
  8 22  1  0  0  0
  9 21  1  0  0  0
 10 27  1  0  0  0
 11  5  1  0  0  0
 11 30  1  0  0  0
 12  6  1  0  0  0
 12 13  1  0  0  0
 12 21  1  0  0  0
 13 19  1  0  0  0
 13 30  1  0  0  0
 14 10  1  0  0  0
 15 28  1  0  0  0
 16  5  1  0  0  0
 16 27  1  0  0  0
 18 28  1  0  0  0
  1  2  2  0  0  0
  3 17  2  0  0  0
  4  5  2  0  0  0
  6 23  2  0  0  0
  7 18  2  0  0  0
  8 24  2  0  0  0
  9 25  2  0  0  0
 10 26  2  0  0  0
M  CHG  1  22  -1
M  END
> <rmsd>
0.192657679

$$$$
ZINC04468780


 30 32  0  0  0  0  0  0  0  0999 V2000
   -4.4870   -1.1677    0.4471 C   0  0  0  0  0
   -3.4004   -0.4798   -0.0509 C   0  0  0  0  0
   -2.9976   -2.4347   -0.9597 C   0  0  0  0  0
    3.0782   -0.1617   -0.2855 C   0  0  0  0  0
    3.6270   -0.6224    0.8638 C   0  0  0  0  0
    1.1604    1.2790   -1.1146 C   0  0  0  0  0
   -3.1241    0.9528    0.2400 C   0  0  0  0  0
    3.5188   -0.7404   -1.6250 C   0  0  0  0  0
   -1.9028    1.5956   -0.3631 C   0  0  0  0  0
    5.3240   -3.7427    1.7413 C   0  0  0  0  0
    3.1240   -0.2296    2.2510 C   0  0  0  0  0
    0.4976    2.0152    0.0846 C   0  0  0  0  0
    1.7364    1.5614    0.8871 C   0  0  0  0  0
    4.7539   -4.9172    2.4774 C   0  0  0  0  0
   -4.3897    3.6415    2.0009 C   0  0  0  0  0
    4.7817   -1.5920    0.9263 C   0  0  0  0  0
   -2.5450   -1.2048   -0.8574 N   0  0  0  0  0
   -3.9158    1.6416    1.0056 N   0  0  0  0  0
    2.0858    0.7653   -0.2755 N   0  0  0  0  0
   -2.3943   -3.4156   -1.6820 N   0  0  0  0  0
   -0.8109    1.4749    0.4505 N   0  0  0  0  0
    2.8506   -1.7338   -2.0134 O   0  0  0  0  0
    0.9257    1.1339   -2.2914 O   0  0  0  0  0
    4.4908   -0.1458   -2.1600 O   0  0  0  0  0
   -2.0112    2.1252   -1.4573 O   0  0  0  0  0
    6.4746   -3.6852    1.3292 O   0  0  0  0  0
    4.3749   -2.7620    1.6048 O   0  0  0  0  0
   -3.4737    2.9634    1.1551 O   0  0  0  0  0
   -4.4474   -2.7885   -0.1122 S   0  0  0  0  0
    1.4297    0.4485    2.2776 S   0  0  0  0  0
  1 29  1  0  0  0
  2  7  1  0  0  0
  2 17  1  0  0  0
  3 20  1  0  0  0
  3 29  1  0  0  0
  4  8  1  0  0  0
  4 19  1  0  0  0
  6 19  1  0  0  0
  7  9  1  0  0  0
  8 22  1  0  0  0
  9 21  1  0  0  0
 10 27  1  0  0  0
 11  5  1  0  0  0
 11 30  1  0  0  0
 12  6  1  0  0  0
 12 13  1  0  0  0
 12 21  1  0  0  0
 13 19  1  0  0  0
 13 30  1  0  0  0
 14 10  1  0  0  0
 15 28  1  0  0  0
 16  5  1  0  0  0
 16 27  1  0  0  0
 18 28  1  0  0  0
  1  2  2  0  0  0
  3 17  2  0  0  0
  4  5  2  0  0  0
  6 23  2  0  0  0
  7 18  2  0  0  0
  8 24  2  0  0  0
  9 25  2  0  0  0
 10 26  2  0  0  0
M  CHG  1  22  -1
M  END
> <rmsd>
0.102866806

$$$$
ZINC04468780


 30 32  0  0  0  0  0  0  0  0999 V2000
   -4.2083   -1.2864    0.2901 C   0  0  0  0  0
   -3.1733   -0.4828   -0.1398 C   0  0  0  0  0
   -2.5627   -2.3533   -1.1086 C   0  0  0  0  0
    3.2531    0.4284   -0.1206 C   0  0  0  0  0
    3.8030   -0.0290    1.0294 C   0  0  0  0  0
    1.2401    1.7238   -0.9637 C   0  0  0  0  0
   -3.0394    0.9553    0.2167 C   0  0  0  0  0
    3.7895   -0.0511   -1.4644 C   0  0  0  0  0
   -1.8627    1.7306   -0.3149 C   0  0  0  0  0
    5.7486   -3.0177    1.8472 C   0  0  0  0  0
    3.2199    0.2578    2.4113 C   0  0  0  0  0
    0.4728    2.3459    0.2378 C   0  0  0  0  0
    1.7204    1.9723    1.0675 C   0  0  0  0  0
    5.2642   -4.2689    2.5151 C   0  0  0  0  0
   -4.6045    3.4421    2.0329 C   0  0  0  0  0
    5.0389   -0.8922    1.0970 C   0  0  0  0  0
   -2.2285   -1.0929   -0.9417 N   0  0  0  0  0
   -3.9161    1.5369    0.9787 N   0  0  0  0  0
    2.1801    1.2607   -0.1114 N   0  0  0  0  0
   -1.8481   -3.2443   -1.8457 N   0  0  0  0  0
   -0.7922    1.6747    0.5334 N   0  0  0  0  0
    3.2286   -1.0835   -1.9158 O   0  0  0  0  0
    1.0592    1.6080   -2.1532 O   0  0  0  0  0
    4.7202    0.6508   -1.9392 O   0  0  0  0  0
   -1.9824    2.2940   -1.3909 O   0  0  0  0  0
    6.9022   -2.8392    1.4807 O   0  0  0  0  0
    4.7186   -2.1217    1.7138 O   0  0  0  0  0
   -3.6024    2.8856    1.1960 O   0  0  0  0  0
   -4.0015   -2.8719   -0.3301 S   0  0  0  0  0
    1.4706    0.7785    2.4012 S   0  0  0  0  0
  1 29  1  0  0  0
  2  7  1  0  0  0
  2 17  1  0  0  0
  3 20  1  0  0  0
  3 29  1  0  0  0
  4  8  1  0  0  0
  4 19  1  0  0  0
  6 19  1  0  0  0
  7  9  1  0  0  0
  8 22  1  0  0  0
  9 21  1  0  0  0
 10 27  1  0  0  0
 11  5  1  0  0  0
 11 30  1  0  0  0
 12  6  1  0  0  0
 12 13  1  0  0  0
 12 21  1  0  0  0
 13 19  1  0  0  0
 13 30  1  0  0  0
 14 10  1  0  0  0
 15 28  1  0  0  0
 16  5  1  0  0  0
 16 27  1  0  0  0
 18 28  1  0  0  0
  1  2  2  0  0  0
  3 17  2  0  0  0
  4  5  2  0  0  0
  6 23  2  0  0  0
  7 18  2  0  0  0
  8 24  2  0  0  0
  9 25  2  0  0  0
 10 26  2  0  0  0
M  CHG  1  22  -1
M  END
> <rmsd>
0.4026438

$$$$
ZINC33253081


 32 35  0  0  0  0  0  0  0  0999 V2000
    7.6973    1.7816   -8.7081 C   0  0  0  0  0
    6.8649    0.6688   -8.5882 C   0  0  0  0  0
    7.5635    2.8514   -7.8229 C   0  0  0  0  0
    5.8986    0.6258   -7.5831 C   0  0  0  0  0
    6.5972    2.8083   -6.8179 C   0  0  0  0  0
    0.8688    2.5243   -2.5708 C   0  0  0  0  0
   -0.1070    2.5010   -1.5745 C   0  0  0  0  0
   -3.5400   -2.5660    0.5398 C   0  0  0  0  0
   -2.9057   -2.3075   -1.7771 C   0  0  0  0  0
   -3.3762   -1.1950    0.7376 C   0  0  0  0  0
   -2.7419   -0.9366   -1.5793 C   0  0  0  0  0
    0.8583    0.4764   -0.6763 C   0  0  0  0  0
    1.8342    0.4997   -1.6727 C   0  0  0  0  0
    5.7648    1.6956   -6.6980 C   0  0  0  0  0
    1.8394    1.5236   -2.6200 C   0  0  0  0  0
   -0.1122    1.4771   -0.6272 C   0  0  0  0  0
   -3.3047   -3.1222   -0.7175 C   0  0  0  0  0
   -2.9772   -0.3802   -0.3220 C   0  0  0  0  0
    2.8489   -0.5704   -1.7020 C   0  0  0  0  0
    3.5497    0.9164   -5.8830 C   0  0  0  0  0
    5.0053    2.3422   -4.4215 C   0  0  0  0  0
    2.4268    1.5198   -5.0349 C   0  0  0  0  0
    4.2276    1.6556   -3.2954 C   0  0  0  0  0
    4.8000    1.6523   -5.6950 N   0  0  0  0  0
    2.8047    1.5647   -3.6226 N   0  0  0  0  0
   -1.1115    1.4537    0.3924 N   0  0  0  0  0
    2.6041   -1.6336   -2.3834 O   0  0  0  0  0
    3.9419   -0.4019   -1.0450 O   0  0  0  0  0
   -3.5971    1.7229    1.0632 O   0  0  0  0  0
   -2.9652    2.0177   -1.3479 O   0  0  0  0  0
   -3.4606   -4.4390   -0.9071 F   0  0  0  0  0
   -2.7680    1.3592   -0.0708 S   0  0  0  0  0
  1  2  1  0  0  0
  3  5  1  0  0  0
  4 14  1  0  0  0
  6 15  1  0  0  0
  7 16  1  0  0  0
  8 17  1  0  0  0
  9 11  1  0  0  0
 10 18  1  0  0  0
 12 13  1  0  0  0
 13 19  1  0  0  0
 14 24  1  0  0  0
 15 25  1  0  0  0
 16 26  1  0  0  0
 17 31  1  0  0  0
 19 27  1  0  0  0
 20 22  1  0  0  0
 20 24  1  0  0  0
 21 23  1  0  0  0
 21 24  1  0  0  0
 22 25  1  0  0  0
 23 25  1  0  0  0
 32 18  1  0  0  0
 32 26  1  0  0  0
  1  3  2  0  0  0
  2  4  2  0  0  0
  5 14  2  0  0  0
  6  7  2  0  0  0
  8 10  2  0  0  0
  9 17  2  0  0  0
 11 18  2  0  0  0
 12 16  2  0  0  0
 13 15  2  0  0  0
 19 28  2  0  0  0
 32 29  2  0  0  0
 32 30  2  0  0  0
M  CHG  1  27  -1
M  END
> <rmsd>
0.526104152

$$$$
ZINC33253081


 32 35  0  0  0  0  0  0  0  0999 V2000
    8.4274    2.7850   -7.6654 C   0  0  0  0  0
    7.6775    1.6092   -7.6370 C   0  0  0  0  0
    8.1283    3.8245   -6.7846 C   0  0  0  0  0
    6.6283    1.4730   -6.7279 C   0  0  0  0  0
    7.0792    3.6883   -5.8756 C   0  0  0  0  0
    1.0209    2.8840   -2.1901 C   0  0  0  0  0
   -0.0384    2.7669   -1.2904 C   0  0  0  0  0
   -3.2445   -2.5884    0.4336 C   0  0  0  0  0
   -2.4198   -2.2386   -1.8101 C   0  0  0  0  0
   -3.2080   -1.2128    0.6616 C   0  0  0  0  0
   -2.3833   -0.8630   -1.5823 C   0  0  0  0  0
    0.9952    0.8064   -0.3284 C   0  0  0  0  0
    2.0546    0.9235   -1.2282 C   0  0  0  0  0
    6.3292    2.5126   -5.8472 C   0  0  0  0  0
    2.0674    1.9623   -2.1590 C   0  0  0  0  0
   -0.0513    1.7282   -0.3595 C   0  0  0  0  0
   -2.8504   -3.1012   -0.8021 C   0  0  0  0  0
   -2.7775   -0.3500   -0.3464 C   0  0  0  0  0
    3.1485   -0.0644   -1.1740 C   0  0  0  0  0
    4.1161    1.5498   -5.2533 C   0  0  0  0  0
    5.3130    3.0561   -3.6452 C   0  0  0  0  0
    2.8752    2.0489   -4.5079 C   0  0  0  0  0
    4.4902    2.2907   -2.6051 C   0  0  0  0  0
    5.2817    2.3763   -4.9401 N   0  0  0  0  0
    3.1155    2.0965   -3.0658 N   0  0  0  0  0
   -1.1360    1.6087    0.5612 N   0  0  0  0  0
    3.0525   -1.1304   -1.8874 O   0  0  0  0  0
    4.1591    0.1756   -0.4152 O   0  0  0  0  0
   -3.6867    1.6728    0.9981 O   0  0  0  0  0
   -2.8585    2.0605   -1.3393 O   0  0  0  0  0
   -2.8841   -4.4224   -1.0205 F   0  0  0  0  0
   -2.7298    1.3954   -0.0569 S   0  0  0  0  0
  1  2  1  0  0  0
  3  5  1  0  0  0
  4 14  1  0  0  0
  6 15  1  0  0  0
  7 16  1  0  0  0
  8 17  1  0  0  0
  9 11  1  0  0  0
 10 18  1  0  0  0
 12 13  1  0  0  0
 13 19  1  0  0  0
 14 24  1  0  0  0
 15 25  1  0  0  0
 16 26  1  0  0  0
 17 31  1  0  0  0
 19 27  1  0  0  0
 20 22  1  0  0  0
 20 24  1  0  0  0
 21 23  1  0  0  0
 21 24  1  0  0  0
 22 25  1  0  0  0
 23 25  1  0  0  0
 32 18  1  0  0  0
 32 26  1  0  0  0
  1  3  2  0  0  0
  2  4  2  0  0  0
  5 14  2  0  0  0
  6  7  2  0  0  0
  8 10  2  0  0  0
  9 17  2  0  0  0
 11 18  2  0  0  0
 12 16  2  0  0  0
 13 15  2  0  0  0
 19 28  2  0  0  0
 32 29  2  0  0  0
 32 30  2  0  0  0
M  CHG  1  27  -1
M  END
> <rmsd>
0.707068741

$$$$
ZINC12913815


 32 34  0  0  0  0  0  0  0  0999 V2000
   -7.0474    7.6516   -0.1049 C   0  0  0  0  0
   -2.8389   -1.3299   -1.8040 C   0  0  0  0  0
   -1.9545   -2.1195    0.3011 C   0  0  0  0  0
   -6.9746    6.6813   -1.1042 C   0  0  0  0  0
   -6.4443    7.4250    1.1324 C   0  0  0  0  0
   -4.1114   -1.2479   -1.2387 C   0  0  0  0  0
   -3.2271   -2.0375    0.8665 C   0  0  0  0  0
   -1.7605   -1.7658   -1.0341 C   0  0  0  0  0
   -6.2989    5.4845   -0.8664 C   0  0  0  0  0
   -5.7686    6.2282    1.3702 C   0  0  0  0  0
   -4.3055   -1.6016    0.0966 C   0  0  0  0  0
   -5.6959    5.2579    0.3708 C   0  0  0  0  0
   -0.4442   -1.8505   -1.6187 C   0  0  0  0  0
    1.6688   -1.5187   -1.9850 C   0  0  0  0  0
    0.0035    1.1181   -0.3656 C   0  0  0  0  0
   -3.0807    2.6686    0.5754 C   0  0  0  0  0
   -6.2322    4.4582   -1.9491 C   0  0  0  0  0
   -5.1295    6.0046    2.7013 C   0  0  0  0  0
   -7.3735   -0.0829    1.2231 C   0  0  0  0  0
    0.6568   -0.2006   -0.0080 C   0  0  0  0  0
   -3.6552    4.0392    0.2913 C   0  0  0  0  0
   -6.4253   -0.5239    0.1285 C   0  0  0  0  0
   -0.1015   -2.5898   -2.6494 N   0  0  0  0  0
    1.2428   -2.3787   -2.8825 N   0  0  0  0  0
    0.6396   -1.1595   -1.1687 N   0  0  0  0  0
   -1.0616    1.4272    0.4572 N   0  0  0  0  0
   -1.7371    2.6045    0.2565 N   0  0  0  0  0
    0.4164    1.8186   -1.2884 O   0  0  0  0  0
   -3.7511    1.7475    1.0350 O   0  0  0  0  0
   -5.0309    4.0775    0.6055 O   0  0  0  0  0
   -5.5472   -1.5212    0.6483 O   0  0  0  0  0
    3.2550   -0.9337   -1.8448 S   0  0  0  0  0
  1  4  1  0  0  0
  2  8  1  0  0  0
  3  7  1  0  0  0
  5 10  1  0  0  0
  6 11  1  0  0  0
  8 13  1  0  0  0
  9 12  1  0  0  0
 11 31  1  0  0  0
 12 30  1  0  0  0
 13 25  1  0  0  0
 14 24  1  0  0  0
 14 25  1  0  0  0
 15 26  1  0  0  0
 16 27  1  0  0  0
 17  9  1  0  0  0
 18 10  1  0  0  0
 19 22  1  0  0  0
 20 15  1  0  0  0
 20 25  1  0  0  0
 21 16  1  0  0  0
 21 30  1  0  0  0
 22 31  1  0  0  0
 23 24  1  0  0  0
 26 27  1  0  0  0
  1  5  2  0  0  0
  2  6  2  0  0  0
  3  8  2  0  0  0
  4  9  2  0  0  0
  7 11  2  0  0  0
 10 12  2  0  0  0
 13 23  2  0  0  0
 14 32  2  0  0  0
 15 28  2  0  0  0
 16 29  2  0  0  0
M  CHG  1  32  -1
M  END
> <rmsd>
0.514248312

$$$$
ZINC39984628


 31 34  0  0  0  0  0  0  0  0999 V2000
    2.0542    3.0165   -1.9290 C   0  0  0  0  0
    2.8889    1.9020   -2.0124 C   0  0  0  0  0
    0.8503    2.9353   -1.2291 C   0  0  0  0  0
   -4.8735    6.2878    1.8427 C   0  0  0  0  0
   -3.1646    5.8528    3.4942 C   0  0  0  0  0
   -4.7632    7.6563    2.0888 C   0  0  0  0  0
   -3.0542    7.2214    3.7404 C   0  0  0  0  0
    1.3159    0.6253   -0.6961 C   0  0  0  0  0
    2.5198    0.7064   -1.3960 C   0  0  0  0  0
    0.4811    1.7398   -0.6127 C   0  0  0  0  0
   -4.0743    5.3861    2.5454 C   0  0  0  0  0
   -3.8534    8.1231    3.0377 C   0  0  0  0  0
   -5.0018   -2.0779    0.3192 C   0  0  0  0  0
   -4.5177   -2.2179   -1.0320 C   0  0  0  0  0
   -4.7442   -1.0083    1.0799 C   0  0  0  0  0
   -3.7194   -1.3183   -1.6179 C   0  0  0  0  0
   -3.9234    0.0887    0.5188 C   0  0  0  0  0
   -3.3237   -0.1292   -0.8394 C   0  0  0  0  0
   -2.9934    2.1950    0.5872 C   0  0  0  0  0
    3.4006   -0.4692   -1.4846 C   0  0  0  0  0
   -2.0075    1.8897   -0.5131 C   0  0  0  0  0
   -3.7360    1.1954    1.1654 N   0  0  0  0  0
   -3.1279    3.3984    1.0431 N   0  0  0  0  0
   -2.4698    0.7206   -1.2790 N   0  0  0  0  0
   -0.7162    1.6595    0.0834 N   0  0  0  0  0
    3.0370   -1.5611   -0.9064 O   0  0  0  0  0
    4.5064   -0.3676   -2.1370 O   0  0  0  0  0
   -3.7851    3.0029    3.4604 O   0  0  0  0  0
   -5.5510    3.4198    1.7130 O   0  0  0  0  0
   -4.2143    3.6481    2.2328 S   0  0  0  0  0
   -3.7150    9.8116    3.3394 Cl  0  0  0  0  0
  1  2  1  0  0  0
  3 10  1  0  0  0
  4 11  1  0  0  0
  5  7  1  0  0  0
  6 12  1  0  0  0
  8  9  1  0  0  0
  9 20  1  0  0  0
 10 25  1  0  0  0
 12 31  1  0  0  0
 13 14  1  0  0  0
 15 17  1  0  0  0
 16 18  1  0  0  0
 17 18  1  0  0  0
 19 22  1  0  0  0
 20 26  1  0  0  0
 21 19  1  0  0  0
 21 24  1  0  0  0
 21 25  1  0  0  0
 30 11  1  0  0  0
 30 23  1  0  0  0
  1  3  2  0  0  0
  2  9  2  0  0  0
  4  6  2  0  0  0
  5 11  2  0  0  0
  7 12  2  0  0  0
  8 10  2  0  0  0
 13 15  2  0  0  0
 14 16  2  0  0  0
 17 22  2  0  0  0
 18 24  2  0  0  0
 19 23  2  0  0  0
 20 27  2  0  0  0
 30 28  2  0  0  0
 30 29  2  0  0  0
M  CHG  2  24   1  26  -1
M  END
> <rmsd>
0.555747092

$$$$
ZINC35397375


 27 28  0  0  0  0  0  0  0  0999 V2000
   -3.3972   -1.1888    0.7491 C   0  0  0  0  0
   -2.7434   -0.9507   -1.5647 C   0  0  0  0  0
   -3.5703   -2.5597    0.5590 C   0  0  0  0  0
   -2.9166   -2.3216   -1.7547 C   0  0  0  0  0
    0.8683    0.4572   -0.6590 C   0  0  0  0  0
   -0.0601    2.4526   -1.5604 C   0  0  0  0  0
    1.8380    0.4947   -1.6548 C   0  0  0  0  0
   -0.1024    1.4511   -0.6039 C   0  0  0  0  0
   -2.9837   -0.3843   -0.3128 C   0  0  0  0  0
   -3.3301   -3.1262   -0.6928 C   0  0  0  0  0
    1.7933    1.5389   -2.5644 C   0  0  0  0  0
    2.8653   -0.5595   -1.7111 C   0  0  0  0  0
    1.4873    1.0967   -7.1312 C   0  0  0  0  0
    5.2237    4.5383   -3.5193 C   0  0  0  0  0
    1.7203    1.7788   -5.7907 C   0  0  0  0  0
    3.9233    3.7790   -3.7409 C   0  0  0  0  0
    2.5723    0.9418   -4.8441 C   0  0  0  0  0
    4.0213    2.3127   -3.3376 C   0  0  0  0  0
    0.8660    2.5225   -2.5427 N   0  0  0  0  0
   -1.1092    1.4398    0.4045 N   0  0  0  0  0
    2.7703    1.5833   -3.5739 N   0  0  0  0  0
    2.6294   -1.6167   -2.4068 O   0  0  0  0  0
    3.9639   -0.3880   -1.0623 O   0  0  0  0  0
   -3.6008    1.7330    1.0520 O   0  0  0  0  0
   -2.9444    2.0064   -1.3551 O   0  0  0  0  0
   -2.7641    1.3554   -0.0718 S   0  0  0  0  0
   -3.5653   -4.9835   -0.9504 Br  0  0  0  0  0
  1  9  1  0  0  0
  2  4  1  0  0  0
  3 10  1  0  0  0
  5  8  1  0  0  0
  6 19  1  0  0  0
  7 11  1  0  0  0
  7 12  1  0  0  0
  8 20  1  0  0  0
 10 27  1  0  0  0
 11 21  1  0  0  0
 12 22  1  0  0  0
 13 15  1  0  0  0
 14 16  1  0  0  0
 15 17  1  0  0  0
 16 18  1  0  0  0
 17 21  1  0  0  0
 18 21  1  0  0  0
 26  9  1  0  0  0
 26 20  1  0  0  0
  1  3  2  0  0  0
  2  9  2  0  0  0
  4 10  2  0  0  0
  5  7  2  0  0  0
  6  8  2  0  0  0
 11 19  2  0  0  0
 12 23  2  0  0  0
 26 24  2  0  0  0
 26 25  2  0  0  0
M  CHG  1  22  -1
M  END
> <rmsd>
0.509992063

$$$$
ZINC35397375


 27 28  0  0  0  0  0  0  0  0999 V2000
   -3.2321   -1.2078    0.6730 C   0  0  0  0  0
   -2.3863   -0.8787   -1.5662 C   0  0  0  0  0
   -3.2794   -2.5842    0.4528 C   0  0  0  0  0
   -2.4336   -2.2552   -1.7863 C   0  0  0  0  0
    1.0046    0.7852   -0.3091 C   0  0  0  0  0
    0.0114    2.7196   -1.2726 C   0  0  0  0  0
    2.0570    0.9148   -1.2086 C   0  0  0  0  0
   -0.0415    1.7007   -0.3351 C   0  0  0  0  0
   -2.7856   -0.3550   -0.3365 C   0  0  0  0  0
   -2.8802   -3.1081   -0.7768 C   0  0  0  0  0
    2.0159    1.9687   -2.1072 C   0  0  0  0  0
    3.1641   -0.0564   -1.1791 C   0  0  0  0  0
    2.1719    1.5864   -6.6869 C   0  0  0  0  0
    5.2760    5.2387   -2.7024 C   0  0  0  0  0
    2.2252    2.2602   -5.3232 C   0  0  0  0  0
    4.0650    4.3862   -3.0536 C   0  0  0  0  0
    3.0480    1.4741   -4.3096 C   0  0  0  0  0
    4.2390    2.9247   -2.6586 C   0  0  0  0  0
    1.0168    2.8778   -2.1625 N   0  0  0  0  0
   -1.1339    1.5942    0.5737 N   0  0  0  0  0
    3.0762    2.1059   -3.0196 N   0  0  0  0  0
    3.0771   -1.1159   -1.9053 O   0  0  0  0  0
    4.1807    0.1871   -0.4279 O   0  0  0  0  0
   -3.6902    1.6840    0.9866 O   0  0  0  0  0
   -2.8359    2.0501   -1.3448 O   0  0  0  0  0
   -2.7256    1.3918   -0.0573 S   0  0  0  0  0
   -2.9449   -4.9730   -1.0753 Br  0  0  0  0  0
  1  9  1  0  0  0
  2  4  1  0  0  0
  3 10  1  0  0  0
  5  8  1  0  0  0
  6 19  1  0  0  0
  7 11  1  0  0  0
  7 12  1  0  0  0
  8 20  1  0  0  0
 10 27  1  0  0  0
 11 21  1  0  0  0
 12 22  1  0  0  0
 13 15  1  0  0  0
 14 16  1  0  0  0
 15 17  1  0  0  0
 16 18  1  0  0  0
 17 21  1  0  0  0
 18 21  1  0  0  0
 26  9  1  0  0  0
 26 20  1  0  0  0
  1  3  2  0  0  0
  2  9  2  0  0  0
  4 10  2  0  0  0
  5  7  2  0  0  0
  6  8  2  0  0  0
 11 19  2  0  0  0
 12 23  2  0  0  0
 26 24  2  0  0  0
 26 25  2  0  0  0
M  CHG  1  22  -1
M  END
> <rmsd>
0.689140618

$$$$
ZINC32961690


 32 34  0  0  0  0  0  0  0  0999 V2000
    8.1846    3.4467   -7.0246 C   0  0  0  0  0
    1.0098    2.8738   -2.2074 C   0  0  0  0  0
   -0.0467    2.7602   -1.3038 C   0  0  0  0  0
    0.9942    0.8085   -0.3320 C   0  0  0  0  0
   -2.7211   -2.6315    0.4807 C   0  0  0  0  0
   -2.9031   -0.8265   -1.6385 C   0  0  0  0  0
    2.0508    0.9220   -1.2355 C   0  0  0  0  0
   -2.8485   -3.1013   -0.8265 C   0  0  0  0  0
   -2.6848   -1.2593    0.7282 C   0  0  0  0  0
   -2.9394   -2.1987   -1.8861 C   0  0  0  0  0
    2.0585    1.9547   -2.1733 C   0  0  0  0  0
   -0.0545    1.7276   -0.3661 C   0  0  0  0  0
   -2.7757   -0.3567   -0.3313 C   0  0  0  0  0
    3.1472   -0.0630   -1.1780 C   0  0  0  0  0
    3.9139    3.3112   -3.1006 C   0  0  0  0  0
    2.9937    1.3887   -4.3755 C   0  0  0  0  0
    5.2645    3.0600   -3.7760 C   0  0  0  0  0
    4.3740    1.1989   -5.0087 C   0  0  0  0  0
   -2.8854   -4.5748   -1.0672 C   0  0  0  0  0
   -2.5467   -0.7889    2.1395 C   0  0  0  0  0
   -3.0767   -2.6785   -3.2938 C   0  0  0  0  0
    6.8864    3.6076   -6.3531 C   0  0  0  0  0
    6.3806    2.2934   -5.7676 C   0  0  0  0  0
    9.2091    3.3219   -7.5548 N   0  0  0  0  0
    3.1089    2.0860   -3.0885 N   0  0  0  0  0
    5.0866    2.4785   -5.1120 N   0  0  0  0  0
   -1.1363    1.6117    0.5585 N   0  0  0  0  0
    3.0516   -1.1339   -1.8841 O   0  0  0  0  0
    4.1594    0.1844   -0.4237 O   0  0  0  0  0
   -3.6858    1.6728    1.0024 O   0  0  0  0  0
   -2.8652    2.0470   -1.3399 O   0  0  0  0  0
   -2.7313    1.3907   -0.0535 S   0  0  0  0  0
  2 11  1  0  0  0
  3 12  1  0  0  0
  4  7  1  0  0  0
  5  8  1  0  0  0
  6 10  1  0  0  0
  7 14  1  0  0  0
  9 13  1  0  0  0
 11 25  1  0  0  0
 12 27  1  0  0  0
 14 28  1  0  0  0
 15 17  1  0  0  0
 15 25  1  0  0  0
 16 18  1  0  0  0
 16 25  1  0  0  0
 17 26  1  0  0  0
 18 26  1  0  0  0
 19  8  1  0  0  0
 20  9  1  0  0  0
 21 10  1  0  0  0
 22  1  1  0  0  0
 22 23  1  0  0  0
 23 26  1  0  0  0
 32 13  1  0  0  0
 32 27  1  0  0  0
  2  3  2  0  0  0
  4 12  2  0  0  0
  5  9  2  0  0  0
  6 13  2  0  0  0
  7 11  2  0  0  0
  8 10  2  0  0  0
 14 29  2  0  0  0
 32 30  2  0  0  0
 32 31  2  0  0  0
  1 24  3  0  0  0
M  CHG  1  28  -1
M  END
> <rmsd>
0.710244

$$$$
ZINC32961690


 32 34  0  0  0  0  0  0  0  0999 V2000
    7.5748    2.4584   -8.0527 C   0  0  0  0  0
    0.8583    2.5114   -2.5848 C   0  0  0  0  0
   -0.1148    2.4925   -1.5857 C   0  0  0  0  0
    0.8578    0.4763   -0.6767 C   0  0  0  0  0
   -3.0210   -2.6495    0.5406 C   0  0  0  0  0
   -3.2595   -0.8610   -1.5870 C   0  0  0  0  0
    1.8310    0.4952   -1.6758 C   0  0  0  0  0
   -3.3060   -3.1232   -0.7400 C   0  0  0  0  0
   -2.8555   -1.2816    0.7574 C   0  0  0  0  0
   -3.4252   -2.2289   -1.8039 C   0  0  0  0  0
    1.8312    1.5128   -2.6299 C   0  0  0  0  0
   -0.1151    1.4749   -0.6316 C   0  0  0  0  0
   -2.9746   -0.3873   -0.3063 C   0  0  0  0  0
    2.8483   -0.5726   -1.7007 C   0  0  0  0  0
    3.6915    2.7074   -3.7501 C   0  0  0  0  0
    2.5100    0.8486   -4.8977 C   0  0  0  0  0
    4.9496    2.3423   -4.5421 C   0  0  0  0  0
    3.8063    0.5428   -5.6517 C   0  0  0  0  0
   -3.4794   -4.5920   -0.9480 C   0  0  0  0  0
   -2.5502   -0.8069    2.1407 C   0  0  0  0  0
   -3.7301   -2.7131   -3.1835 C   0  0  0  0  0
    6.3614    2.7294   -7.2677 C   0  0  0  0  0
    5.8121    1.4663   -6.6130 C   0  0  0  0  0
    8.5326    2.2467   -8.6726 N   0  0  0  0  0
    2.7986    1.5498   -3.6404 N   0  0  0  0  0
    4.6031    1.7608   -5.8446 N   0  0  0  0  0
   -1.1115    1.4558    0.3907 N   0  0  0  0  0
    2.6043   -1.6409   -2.3744 O   0  0  0  0  0
    3.9426   -0.3970   -1.0477 O   0  0  0  0  0
   -3.5960    1.7235    1.0664 O   0  0  0  0  0
   -2.9711    2.0038   -1.3483 O   0  0  0  0  0
   -2.7691    1.3543   -0.0674 S   0  0  0  0  0
  2 11  1  0  0  0
  3 12  1  0  0  0
  4  7  1  0  0  0
  5  8  1  0  0  0
  6 10  1  0  0  0
  7 14  1  0  0  0
  9 13  1  0  0  0
 11 25  1  0  0  0
 12 27  1  0  0  0
 14 28  1  0  0  0
 15 17  1  0  0  0
 15 25  1  0  0  0
 16 18  1  0  0  0
 16 25  1  0  0  0
 17 26  1  0  0  0
 18 26  1  0  0  0
 19  8  1  0  0  0
 20  9  1  0  0  0
 21 10  1  0  0  0
 22  1  1  0  0  0
 22 23  1  0  0  0
 23 26  1  0  0  0
 32 13  1  0  0  0
 32 27  1  0  0  0
  2  3  2  0  0  0
  4 12  2  0  0  0
  5  9  2  0  0  0
  6 13  2  0  0  0
  7 11  2  0  0  0
  8 10  2  0  0  0
 14 29  2  0  0  0
 32 30  2  0  0  0
 32 31  2  0  0  0
  1 24  3  0  0  0
M  CHG  1  28  -1
M  END
> <rmsd>
0.528655589

$$$$
ZINC32961663


 32 34  0  0  0  0  0  0  0  0999 V2000
    8.2107    3.4718   -6.9831 C   0  0  0  0  0
    1.0208    2.8840   -2.1902 C   0  0  0  0  0
   -0.0386    2.7671   -1.2904 C   0  0  0  0  0
    0.9951    0.8066   -0.3285 C   0  0  0  0  0
   -2.6214   -2.6131    0.4847 C   0  0  0  0  0
   -3.0422   -2.2136   -1.8605 C   0  0  0  0  0
    2.0545    0.9236   -1.2283 C   0  0  0  0  0
   -2.8499   -3.1012   -0.8018 C   0  0  0  0  0
   -2.5853   -1.2373    0.7125 C   0  0  0  0  0
   -3.0060   -0.8379   -1.6328 C   0  0  0  0  0
    2.0673    1.9623   -2.1592 C   0  0  0  0  0
   -0.0514    1.7283   -0.3595 C   0  0  0  0  0
   -2.7776   -0.3498   -0.3462 C   0  0  0  0  0
    3.1485   -0.0644   -1.1741 C   0  0  0  0  0
    3.9285    3.3205   -3.0724 C   0  0  0  0  0
    3.0074    1.4086   -4.3625 C   0  0  0  0  0
    5.2804    3.0706   -3.7455 C   0  0  0  0  0
    4.3892    1.2197   -4.9930 C   0  0  0  0  0
   -2.8874   -4.5722   -1.0457 C   0  0  0  0  0
   -2.3369   -0.7519    2.1039 C   0  0  0  0  0
   -3.2159    0.0825   -2.7911 C   0  0  0  0  0
    6.9109    3.6313   -6.3144 C   0  0  0  0  0
    6.4004    2.3145   -5.7389 C   0  0  0  0  0
    9.2364    3.3480   -7.5113 N   0  0  0  0  0
    3.1206    2.0971   -3.0705 N   0  0  0  0  0
    5.1050    2.4983   -5.0858 N   0  0  0  0  0
   -1.1361    1.6089    0.5612 N   0  0  0  0  0
    3.0523   -1.1304   -1.8875 O   0  0  0  0  0
    4.1591    0.1756   -0.4153 O   0  0  0  0  0
   -3.6867    1.6731    0.9982 O   0  0  0  0  0
   -2.8586    2.0607   -1.3392 O   0  0  0  0  0
   -2.7299    1.3957   -0.0568 S   0  0  0  0  0
  2 11  1  0  0  0
  3 12  1  0  0  0
  4  7  1  0  0  0
  5  8  1  0  0  0
  6 10  1  0  0  0
  7 14  1  0  0  0
  9 13  1  0  0  0
 11 25  1  0  0  0
 12 27  1  0  0  0
 14 28  1  0  0  0
 15 17  1  0  0  0
 15 25  1  0  0  0
 16 18  1  0  0  0
 16 25  1  0  0  0
 17 26  1  0  0  0
 18 26  1  0  0  0
 19  8  1  0  0  0
 20  9  1  0  0  0
 21 10  1  0  0  0
 22  1  1  0  0  0
 22 23  1  0  0  0
 23 26  1  0  0  0
 32 13  1  0  0  0
 32 27  1  0  0  0
  2  3  2  0  0  0
  4 12  2  0  0  0
  5  9  2  0  0  0
  6  8  2  0  0  0
  7 11  2  0  0  0
 10 13  2  0  0  0
 14 29  2  0  0  0
 32 30  2  0  0  0
 32 31  2  0  0  0
  1 24  3  0  0  0
M  CHG  1  28  -1
M  END
> <rmsd>
0.70744592

$$$$
ZINC32961663


 32 34  0  0  0  0  0  0  0  0999 V2000
    7.5997    2.4921   -8.0210 C   0  0  0  0  0
    0.8688    2.5247   -2.5707 C   0  0  0  0  0
   -0.1071    2.5015   -1.5743 C   0  0  0  0  0
    0.8583    0.4770   -0.6762 C   0  0  0  0  0
   -2.9183   -2.6390    0.5331 C   0  0  0  0  0
   -3.5258   -2.2344   -1.7699 C   0  0  0  0  0
    1.8342    0.5002   -1.6726 C   0  0  0  0  0
   -3.3038   -3.1222   -0.7173 C   0  0  0  0  0
   -2.7550   -1.2678    0.7309 C   0  0  0  0  0
   -3.3625   -0.8633   -1.5723 C   0  0  0  0  0
    1.8394    1.5241   -2.6198 C   0  0  0  0  0
   -0.1123    1.4775   -0.6271 C   0  0  0  0  0
   -2.9771   -0.3800   -0.3217 C   0  0  0  0  0
    2.8491   -0.5698   -1.7019 C   0  0  0  0  0
    3.7055    2.7217   -3.7271 C   0  0  0  0  0
    2.5227    0.8734   -4.8902 C   0  0  0  0  0
    4.9649    2.3588   -4.5182 C   0  0  0  0  0
    3.8202    0.5696   -5.6427 C   0  0  0  0  0
   -3.4773   -4.5884   -0.9292 C   0  0  0  0  0
   -2.3402   -0.7876    2.0838 C   0  0  0  0  0
   -3.6088    0.0576   -2.7230 C   0  0  0  0  0
    6.3848    2.7607   -7.2374 C   0  0  0  0  0
    5.8308    1.4946   -6.5926 C   0  0  0  0  0
    8.5586    2.2823   -8.6397 N   0  0  0  0  0
    2.8096    1.5656   -3.6275 N   0  0  0  0  0
    4.6205    1.7869   -5.8254 N   0  0  0  0  0
   -1.1115    1.4540    0.3925 N   0  0  0  0  0
    2.6044   -1.6331   -2.3832 O   0  0  0  0  0
    3.9420   -0.4012   -1.0448 O   0  0  0  0  0
   -3.5972    1.7231    1.0633 O   0  0  0  0  0
   -2.9652    2.0180   -1.3477 O   0  0  0  0  0
   -2.7681    1.3595   -0.0707 S   0  0  0  0  0
  2 11  1  0  0  0
  3 12  1  0  0  0
  4  7  1  0  0  0
  5  8  1  0  0  0
  6 10  1  0  0  0
  7 14  1  0  0  0
  9 13  1  0  0  0
 11 25  1  0  0  0
 12 27  1  0  0  0
 14 28  1  0  0  0
 15 17  1  0  0  0
 15 25  1  0  0  0
 16 18  1  0  0  0
 16 25  1  0  0  0
 17 26  1  0  0  0
 18 26  1  0  0  0
 19  8  1  0  0  0
 20  9  1  0  0  0
 21 10  1  0  0  0
 22  1  1  0  0  0
 22 23  1  0  0  0
 23 26  1  0  0  0
 32 13  1  0  0  0
 32 27  1  0  0  0
  2  3  2  0  0  0
  4 12  2  0  0  0
  5  9  2  0  0  0
  6  8  2  0  0  0
  7 11  2  0  0  0
 10 13  2  0  0  0
 14 29  2  0  0  0
 32 30  2  0  0  0
 32 31  2  0  0  0
  1 24  3  0  0  0
M  CHG  1  28  -1
M  END
> <rmsd>
0.526583016

$$$$
ZINC32961977


 32 34  0  0  0  0  0  0  0  0999 V2000
   -4.9634    8.8074   -1.8502 C   0  0  0  0  0
    1.9341    1.5841   -2.4887 C   0  0  0  0  0
    1.0325    2.6448   -2.3992 C   0  0  0  0  0
    0.8199    0.4819   -0.6500 C   0  0  0  0  0
   -2.9252   -2.6500    0.5184 C   0  0  0  0  0
   -3.1434   -0.8589   -1.6094 C   0  0  0  0  0
    1.8277    0.5026   -1.6142 C   0  0  0  0  0
   -3.1628   -3.1249   -0.7715 C   0  0  0  0  0
   -2.7969   -1.2796    0.7444 C   0  0  0  0  0
   -3.2718   -2.2294   -1.8353 C   0  0  0  0  0
    0.0247    2.6239   -1.4351 C   0  0  0  0  0
   -0.0817    1.5425   -0.5605 C   0  0  0  0  0
   -2.9059   -0.3841   -0.3195 C   0  0  0  0  0
    2.7790   -0.6164   -1.7091 C   0  0  0  0  0
   -1.2012    4.4515   -2.5751 C   0  0  0  0  0
   -0.9378    4.4544   -0.1055 C   0  0  0  0  0
   -2.5203    5.2067   -2.3945 C   0  0  0  0  0
   -2.2657    5.2084   -0.0046 C   0  0  0  0  0
   -3.2969   -4.5964   -0.9891 C   0  0  0  0  0
   -2.5419   -0.8036    2.1373 C   0  0  0  0  0
   -3.5263   -2.7149   -3.2247 C   0  0  0  0  0
   -3.7242    8.0250   -1.9695 C   0  0  0  0  0
   -3.7320    6.8023   -1.0581 C   0  0  0  0  0
   -5.9405    9.4263   -1.7575 N   0  0  0  0  0
   -0.8693    3.6980   -1.3621 N   0  0  0  0  0
   -2.4876    6.0455   -1.1902 N   0  0  0  0  0
   -1.1069    1.4990    0.4364 N   0  0  0  0  0
    2.6594   -1.6028   -0.8898 O   0  0  0  0  0
    3.7000   -0.5724   -2.6084 O   0  0  0  0  0
   -3.6123    1.7065    1.0430 O   0  0  0  0  0
   -2.9285    2.0108   -1.3527 O   0  0  0  0  0
   -2.7466    1.3608   -0.0690 S   0  0  0  0  0
  2  7  1  0  0  0
  3 11  1  0  0  0
  4 12  1  0  0  0
  5  8  1  0  0  0
  6 10  1  0  0  0
  7 14  1  0  0  0
  9 13  1  0  0  0
 11 25  1  0  0  0
 12 27  1  0  0  0
 14 28  1  0  0  0
 15 17  1  0  0  0
 15 25  1  0  0  0
 16 18  1  0  0  0
 16 25  1  0  0  0
 17 26  1  0  0  0
 18 26  1  0  0  0
 19  8  1  0  0  0
 20  9  1  0  0  0
 21 10  1  0  0  0
 22  1  1  0  0  0
 22 23  1  0  0  0
 23 26  1  0  0  0
 32 13  1  0  0  0
 32 27  1  0  0  0
  2  3  2  0  0  0
  4  7  2  0  0  0
  5  9  2  0  0  0
  6 13  2  0  0  0
  8 10  2  0  0  0
 11 12  2  0  0  0
 14 29  2  0  0  0
 32 30  2  0  0  0
 32 31  2  0  0  0
  1 24  3  0  0  0
M  CHG  1  28  -1
M  END
> <rmsd>
0.591510713

$$$$
ZINC33253432


 32 35  0  0  0  0  0  0  0  0999 V2000
   -3.5402   -2.5663    0.5395 C   0  0  0  0  0
   -2.9068   -2.3070   -1.7776 C   0  0  0  0  0
    0.8685    2.5243   -2.5709 C   0  0  0  0  0
   -0.1073    2.5011   -1.5746 C   0  0  0  0  0
   -3.3759   -1.1954    0.7378 C   0  0  0  0  0
   -2.7425   -0.9361   -1.5792 C   0  0  0  0  0
    0.8583    0.4768   -0.6761 C   0  0  0  0  0
    1.8341    0.5000   -1.6727 C   0  0  0  0  0
   -3.3056   -3.1221   -0.7182 C   0  0  0  0  0
    1.8392    1.5237   -2.6201 C   0  0  0  0  0
   -0.1124    1.4774   -0.6272 C   0  0  0  0  0
   -2.9771   -0.3803   -0.3215 C   0  0  0  0  0
    2.8490   -0.5699   -1.7019 C   0  0  0  0  0
   -3.4653   -7.1129   -2.5187 C   0  0  0  0  0
   -2.3566   -6.8076   -1.5162 C   0  0  0  0  0
   -4.7754   -6.4323   -2.1335 C   0  0  0  0  0
   -2.1649   -5.3039   -1.3275 C   0  0  0  0  0
   -4.5955   -4.9268   -1.9480 C   0  0  0  0  0
    3.5298    0.9992   -5.9138 C   0  0  0  0  0
    5.1937    1.7729   -4.2135 C   0  0  0  0  0
    2.3928    1.5178   -5.0334 C   0  0  0  0  0
    4.0527    2.2940   -3.3414 C   0  0  0  0  0
   -3.4817   -4.6100   -0.9332 C   0  0  0  0  0
    4.8196    1.7971   -5.6991 C   0  0  0  0  0
    5.9540    1.2384   -6.5547 C   0  0  0  0  0
    2.8097    1.5652   -3.6282 N   0  0  0  0  0
   -1.1116    1.4539    0.3925 N   0  0  0  0  0
    2.6044   -1.6333   -2.3831 O   0  0  0  0  0
    3.9419   -0.4012   -1.0449 O   0  0  0  0  0
   -3.5972    1.7229    1.0633 O   0  0  0  0  0
   -2.9654    2.0175   -1.3478 O   0  0  0  0  0
   -2.7681    1.3592   -0.0707 S   0  0  0  0  0
  1  9  1  0  0  0
  2  6  1  0  0  0
  3 10  1  0  0  0
  4 11  1  0  0  0
  5 12  1  0  0  0
  7  8  1  0  0  0
  8 13  1  0  0  0
 10 26  1  0  0  0
 11 27  1  0  0  0
 13 28  1  0  0  0
 14 15  1  0  0  0
 14 16  1  0  0  0
 15 17  1  0  0  0
 16 18  1  0  0  0
 17 23  1  0  0  0
 18 23  1  0  0  0
 19 21  1  0  0  0
 19 24  1  0  0  0
 20 22  1  0  0  0
 20 24  1  0  0  0
 21 26  1  0  0  0
 22 26  1  0  0  0
 23  9  1  0  0  0
 24 25  1  0  0  0
 32 12  1  0  0  0
 32 27  1  0  0  0
  1  5  2  0  0  0
  2  9  2  0  0  0
  3  4  2  0  0  0
  6 12  2  0  0  0
  7 11  2  0  0  0
  8 10  2  0  0  0
 13 29  2  0  0  0
 32 30  2  0  0  0
 32 31  2  0  0  0
M  CHG  1  28  -1
M  END
> <rmsd>
0.526355743

$$$$
ZINC33253432


 32 35  0  0  0  0  0  0  0  0999 V2000
   -3.2452   -2.5886    0.4335 C   0  0  0  0  0
   -2.4213   -2.2382   -1.8105 C   0  0  0  0  0
    1.0207    2.8835   -2.1902 C   0  0  0  0  0
   -0.0386    2.7666   -1.2905 C   0  0  0  0  0
   -3.2081   -1.2130    0.6620 C   0  0  0  0  0
   -2.3842   -0.8627   -1.5821 C   0  0  0  0  0
    0.9950    0.8063   -0.3281 C   0  0  0  0  0
    2.0544    0.9232   -1.2280 C   0  0  0  0  0
   -2.8518   -3.1012   -0.8027 C   0  0  0  0  0
    2.0672    1.9617   -2.1591 C   0  0  0  0  0
   -0.0515    1.7281   -0.3594 C   0  0  0  0  0
   -2.7776   -0.3501   -0.3459 C   0  0  0  0  0
    3.1484   -0.0647   -1.1736 C   0  0  0  0  0
   -2.5298   -7.0582   -2.6552 C   0  0  0  0  0
   -1.5465   -6.6872   -1.5493 C   0  0  0  0  0
   -3.9194   -6.4879   -2.3873 C   0  0  0  0  0
   -1.4917   -5.1769   -1.3265 C   0  0  0  0  0
   -3.8762   -4.9767   -2.1687 C   0  0  0  0  0
    4.0927    1.6303   -5.2847 C   0  0  0  0  0
    5.5254    2.4982   -3.4267 C   0  0  0  0  0
    2.8416    2.0433   -4.5095 C   0  0  0  0  0
    4.2709    2.9134   -2.6600 C   0  0  0  0  0
   -2.8898   -4.5940   -1.0501 C   0  0  0  0  0
    5.2904    2.5211   -4.9406 C   0  0  0  0  0
    6.5397    2.0674   -5.6918 C   0  0  0  0  0
    3.1210    2.0965   -3.0708 N   0  0  0  0  0
   -1.1362    1.6087    0.5613 N   0  0  0  0  0
    3.0523   -1.1309   -1.8869 O   0  0  0  0  0
    4.1589    0.1756   -0.4147 O   0  0  0  0  0
   -3.6869    1.6729    0.9982 O   0  0  0  0  0
   -2.8587    2.0602   -1.3393 O   0  0  0  0  0
   -2.7300    1.3954   -0.0568 S   0  0  0  0  0
  1  9  1  0  0  0
  2  6  1  0  0  0
  3 10  1  0  0  0
  4 11  1  0  0  0
  5 12  1  0  0  0
  7  8  1  0  0  0
  8 13  1  0  0  0
 10 26  1  0  0  0
 11 27  1  0  0  0
 13 28  1  0  0  0
 14 15  1  0  0  0
 14 16  1  0  0  0
 15 17  1  0  0  0
 16 18  1  0  0  0
 17 23  1  0  0  0
 18 23  1  0  0  0
 19 21  1  0  0  0
 19 24  1  0  0  0
 20 22  1  0  0  0
 20 24  1  0  0  0
 21 26  1  0  0  0
 22 26  1  0  0  0
 23  9  1  0  0  0
 24 25  1  0  0  0
 32 12  1  0  0  0
 32 27  1  0  0  0
  1  5  2  0  0  0
  2  9  2  0  0  0
  3  4  2  0  0  0
  6 12  2  0  0  0
  7 11  2  0  0  0
  8 10  2  0  0  0
 13 29  2  0  0  0
 32 30  2  0  0  0
 32 31  2  0  0  0
M  CHG  1  28  -1
M  END
> <rmsd>
0.707035899

$$$$
ZINC32962100


 32 35  0  0  0  0  0  0  0  0999 V2000
   -3.5402   -2.5661    0.5388 C   0  0  0  0  0
   -2.9066   -2.3066   -1.7782 C   0  0  0  0  0
    0.8689    2.5247   -2.5708 C   0  0  0  0  0
   -0.1070    2.5014   -1.5745 C   0  0  0  0  0
   -3.3759   -1.1953    0.7373 C   0  0  0  0  0
   -2.7424   -0.9358   -1.5797 C   0  0  0  0  0
    0.8585    0.4769   -0.6763 C   0  0  0  0  0
    1.8343    0.5003   -1.6727 C   0  0  0  0  0
   -3.3056   -3.1218   -0.7189 C   0  0  0  0  0
    1.8395    1.5240   -2.6200 C   0  0  0  0  0
   -0.1122    1.4775   -0.6272 C   0  0  0  0  0
   -2.9770   -0.3801   -0.3220 C   0  0  0  0  0
    2.8491   -0.5698   -1.7021 C   0  0  0  0  0
   -3.4653   -7.1124   -2.5199 C   0  0  0  0  0
    3.9947    3.4617   -5.6685 C   0  0  0  0  0
    3.2189    2.5646   -6.6316 C   0  0  0  0  0
   -2.3567   -6.8073   -1.5173 C   0  0  0  0  0
   -4.7753   -6.4320   -2.1346 C   0  0  0  0  0
    4.8314    2.6802   -4.6553 C   0  0  0  0  0
    2.1227    1.7198   -5.9852 C   0  0  0  0  0
   -2.1649   -5.3036   -1.3285 C   0  0  0  0  0
   -4.5955   -4.9264   -1.9489 C   0  0  0  0  0
    4.0664    2.2831   -3.3914 C   0  0  0  0  0
    2.6280    0.8095   -4.8680 C   0  0  0  0  0
   -3.4816   -4.6097   -0.9342 C   0  0  0  0  0
    2.8102    1.5655   -3.6282 N   0  0  0  0  0
   -1.1114    1.4539    0.3924 N   0  0  0  0  0
    2.6045   -1.6331   -2.3833 O   0  0  0  0  0
    3.9421   -0.4012   -1.0449 O   0  0  0  0  0
   -3.5971    1.7229    1.0631 O   0  0  0  0  0
   -2.9652    2.0178   -1.3479 O   0  0  0  0  0
   -2.7680    1.3593   -0.0708 S   0  0  0  0  0
  1  5  1  0  0  0
  2  9  1  0  0  0
  3 10  1  0  0  0
  4 11  1  0  0  0
  6 12  1  0  0  0
  7  8  1  0  0  0
  8 13  1  0  0  0
 10 26  1  0  0  0
 11 27  1  0  0  0
 13 28  1  0  0  0
 14 17  1  0  0  0
 14 18  1  0  0  0
 15 16  1  0  0  0
 15 19  1  0  0  0
 16 20  1  0  0  0
 17 21  1  0  0  0
 18 22  1  0  0  0
 19 23  1  0  0  0
 20 24  1  0  0  0
 21 25  1  0  0  0
 22 25  1  0  0  0
 23 26  1  0  0  0
 24 26  1  0  0  0
 25  9  1  0  0  0
 32 12  1  0  0  0
 32 27  1  0  0  0
  1  9  2  0  0  0
  2  6  2  0  0  0
  3  4  2  0  0  0
  5 12  2  0  0  0
  7 11  2  0  0  0
  8 10  2  0  0  0
 13 29  2  0  0  0
 32 30  2  0  0  0
 32 31  2  0  0  0
M  CHG  1  28  -1
M  END
> <rmsd>
0.526263356

$$$$
ZINC32962100


 32 35  0  0  0  0  0  0  0  0999 V2000
   -3.2450   -2.5884    0.4328 C   0  0  0  0  0
   -2.4210   -2.2379   -1.8111 C   0  0  0  0  0
    1.0211    2.8839   -2.1901 C   0  0  0  0  0
   -0.0383    2.7669   -1.2904 C   0  0  0  0  0
   -3.2079   -1.2130    0.6614 C   0  0  0  0  0
   -2.3840   -0.8624   -1.5825 C   0  0  0  0  0
    0.9953    0.8065   -0.3283 C   0  0  0  0  0
    2.0547    0.9235   -1.2280 C   0  0  0  0  0
   -2.8515   -3.1009   -0.8035 C   0  0  0  0  0
    2.0676    1.9621   -2.1589 C   0  0  0  0  0
   -0.0513    1.7282   -0.3594 C   0  0  0  0  0
   -2.7774   -0.3499   -0.3463 C   0  0  0  0  0
    3.1486   -0.0645   -1.1738 C   0  0  0  0  0
   -2.5296   -7.0578   -2.6565 C   0  0  0  0  0
    4.3383    4.1164   -4.9688 C   0  0  0  0  0
    3.7281    3.1803   -6.0108 C   0  0  0  0  0
   -1.5463   -6.6869   -1.5505 C   0  0  0  0  0
   -3.9191   -6.4875   -2.3886 C   0  0  0  0  0
    5.1359    3.3830   -3.8903 C   0  0  0  0  0
    2.6463    2.2417   -5.4802 C   0  0  0  0  0
   -1.4915   -5.1766   -1.3276 C   0  0  0  0  0
   -3.8760   -4.9763   -2.1698 C   0  0  0  0  0
    4.2902    2.9047   -2.7086 C   0  0  0  0  0
    3.1154    1.3524   -4.3307 C   0  0  0  0  0
   -2.8896   -4.5937   -1.0511 C   0  0  0  0  0
    3.1216    2.0970   -3.0708 N   0  0  0  0  0
   -1.1360    1.6088    0.5613 N   0  0  0  0  0
    3.0527   -1.1306   -1.8871 O   0  0  0  0  0
    4.1592    0.1756   -0.4148 O   0  0  0  0  0
   -3.6867    1.6729    0.9979 O   0  0  0  0  0
   -2.8584    2.0605   -1.3394 O   0  0  0  0  0
   -2.7298    1.3955   -0.0569 S   0  0  0  0  0
  1  5  1  0  0  0
  2  9  1  0  0  0
  3 10  1  0  0  0
  4 11  1  0  0  0
  6 12  1  0  0  0
  7  8  1  0  0  0
  8 13  1  0  0  0
 10 26  1  0  0  0
 11 27  1  0  0  0
 13 28  1  0  0  0
 14 17  1  0  0  0
 14 18  1  0  0  0
 15 16  1  0  0  0
 15 19  1  0  0  0
 16 20  1  0  0  0
 17 21  1  0  0  0
 18 22  1  0  0  0
 19 23  1  0  0  0
 20 24  1  0  0  0
 21 25  1  0  0  0
 22 25  1  0  0  0
 23 26  1  0  0  0
 24 26  1  0  0  0
 25  9  1  0  0  0
 32 12  1  0  0  0
 32 27  1  0  0  0
  1  9  2  0  0  0
  2  6  2  0  0  0
  3  4  2  0  0  0
  5 12  2  0  0  0
  7 11  2  0  0  0
  8 10  2  0  0  0
 13 29  2  0  0  0
 32 30  2  0  0  0
 32 31  2  0  0  0
M  CHG  1  28  -1
M  END
> <rmsd>
0.707201719

$$$$
ZINC10509552


 31 33  0  0  0  0  0  0  0  0999 V2000
   -2.6896   -2.4042   -0.0270 C   0  0  0  0  0
   -6.0325    5.3933   -0.4698 C   0  0  0  0  0
   -3.0633   -2.3676   -1.3703 C   0  0  0  0  0
   -3.5779   -1.9685    0.9562 C   0  0  0  0  0
   -7.2343    4.7112   -0.6589 C   0  0  0  0  0
   -4.8625    4.6834   -0.1998 C   0  0  0  0  0
   -4.3254   -1.8951   -1.7304 C   0  0  0  0  0
   -4.8400   -1.4960    0.5961 C   0  0  0  0  0
    0.4572    0.3122    1.8798 C   0  0  0  0  0
   -7.2664    3.3190   -0.5779 C   0  0  0  0  0
    1.5883   -0.4405    2.1955 C   0  0  0  0  0
    0.9115    0.0076   -0.4735 C   0  0  0  0  0
   -4.8946    3.2912   -0.1187 C   0  0  0  0  0
   -5.2136   -1.4593   -0.7473 C   0  0  0  0  0
    0.1188    0.5363    0.5452 C   0  0  0  0  0
    2.0425   -0.7451   -0.1577 C   0  0  0  0  0
   -6.0965    2.6090   -0.3078 C   0  0  0  0  0
    2.3809   -0.9692    1.1767 C   0  0  0  0  0
   -3.6617    2.5695    0.1641 C   0  0  0  0  0
   -1.3139    2.1754   -0.8167 C   0  0  0  0  0
   -6.5726   -0.9504   -1.1352 C   0  0  0  0  0
   -6.5889    0.5529   -1.3967 C   0  0  0  0  0
   -1.0318    1.3009    0.2248 N   0  0  0  0  0
   -2.6049    2.7394   -0.7643 N   0  0  0  0  0
    2.8270   -1.2672   -1.2249 N   0  0  0  0  0
    3.7678   -0.5750   -1.6782 O   0  0  0  0  0
   -3.5893    1.8274    1.1568 O   0  0  0  0  0
    2.5525   -2.4030   -1.6774 O   0  0  0  0  0
   -6.1488    1.2493   -0.2328 O   0  0  0  0  0
   -0.3218    2.6731   -2.0756 S   0  0  0  0  0
    3.7723   -1.8948    1.6192 Cl  0  0  0  0  0
  1  3  1  0  0  0
  2  5  1  0  0  0
  4  8  1  0  0  0
  6 13  1  0  0  0
  7 14  1  0  0  0
  9 15  1  0  0  0
 10 17  1  0  0  0
 11 18  1  0  0  0
 12 16  1  0  0  0
 13 19  1  0  0  0
 15 23  1  0  0  0
 16 25  1  0  0  0
 17 29  1  0  0  0
 18 31  1  0  0  0
 19 24  1  0  0  0
 20 23  1  0  0  0
 20 24  1  0  0  0
 21 14  1  0  0  0
 21 22  1  0  0  0
 22 29  1  0  0  0
 25 26  1  0  0  0
  1  4  2  0  0  0
  2  6  2  0  0  0
  3  7  2  0  0  0
  5 10  2  0  0  0
  8 14  2  0  0  0
  9 11  2  0  0  0
 12 15  2  0  0  0
 13 17  2  0  0  0
 16 18  2  0  0  0
 19 27  2  0  0  0
 20 30  2  0  0  0
 25 28  2  0  0  0
M  CHG  2  25   1  26  -1
M  END
> <rmsd>
0.422858924

$$$$
ZINC32962198


 29 31  0  0  0  0  0  0  0  0999 V2000
    1.0212    2.8837   -2.1906 C   0  0  0  0  0
   -0.0381    2.7667   -1.2908 C   0  0  0  0  0
   -3.2066   -1.2124    0.6636 C   0  0  0  0  0
   -3.2474   -2.5878    0.4357 C   0  0  0  0  0
    0.9962    0.8069   -0.3280 C   0  0  0  0  0
   -2.3865   -0.8645   -1.5822 C   0  0  0  0  0
    2.0555    0.9239   -1.2280 C   0  0  0  0  0
    2.0680    1.9623   -2.1593 C   0  0  0  0  0
   -0.0507    1.7283   -0.3595 C   0  0  0  0  0
   -2.7761   -0.3506   -0.3454 C   0  0  0  0  0
   -2.8578   -3.1017   -0.8012 C   0  0  0  0  0
   -2.4273   -2.2400   -1.8101 C   0  0  0  0  0
    3.1498   -0.0636   -1.1735 C   0  0  0  0  0
    2.8205    4.5348   -5.2007 C   0  0  0  0  0
    4.0953    4.8494   -4.4151 C   0  0  0  0  0
    2.8891    3.2659   -6.0530 C   0  0  0  0  0
    4.0874    4.3909   -2.9569 C   0  0  0  0  0
    2.2739    2.0217   -5.4125 C   0  0  0  0  0
    4.3123    2.8936   -2.7590 C   0  0  0  0  0
    3.1394    1.3636   -4.3403 C   0  0  0  0  0
    3.1208    2.0970   -3.0704 N   0  0  0  0  0
   -1.1352    1.6089    0.5613 N   0  0  0  0  0
    3.0540   -1.1301   -1.8865 O   0  0  0  0  0
    4.1603    0.1769   -0.4148 O   0  0  0  0  0
   -3.6859    1.6725    0.9982 O   0  0  0  0  0
   -2.8579    2.0594   -1.3393 O   0  0  0  0  0
   -2.7290    1.3949   -0.0567 S   0  0  0  0  0
   -2.9294   -4.8149   -1.0214 Cl  0  0  0  0  0
   -1.9326   -2.8161   -3.3633 Cl  0  0  0  0  0
  1  2  1  0  0  0
  3 10  1  0  0  0
  4 11  1  0  0  0
  5  9  1  0  0  0
  6 12  1  0  0  0
  7  8  1  0  0  0
  7 13  1  0  0  0
  8 21  1  0  0  0
  9 22  1  0  0  0
 11 28  1  0  0  0
 12 29  1  0  0  0
 13 23  1  0  0  0
 14 15  1  0  0  0
 14 16  1  0  0  0
 15 17  1  0  0  0
 16 18  1  0  0  0
 17 19  1  0  0  0
 18 20  1  0  0  0
 19 21  1  0  0  0
 20 21  1  0  0  0
 27 10  1  0  0  0
 27 22  1  0  0  0
  1  8  2  0  0  0
  2  9  2  0  0  0
  3  4  2  0  0  0
  5  7  2  0  0  0
  6 10  2  0  0  0
 11 12  2  0  0  0
 13 24  2  0  0  0
 27 25  2  0  0  0
 27 26  2  0  0  0
M  CHG  1  23  -1
M  END
> <rmsd>
0.705577314

$$$$
ZINC32962198


 29 31  0  0  0  0  0  0  0  0999 V2000
    0.8691    2.5239   -2.5712 C   0  0  0  0  0
   -0.1067    2.5007   -1.5748 C   0  0  0  0  0
   -3.3747   -1.1947    0.7394 C   0  0  0  0  0
   -3.5429   -2.5651    0.5420 C   0  0  0  0  0
    0.8593    0.4768   -0.6760 C   0  0  0  0  0
   -2.7453   -0.9377   -1.5790 C   0  0  0  0  0
    1.8350    0.4999   -1.6725 C   0  0  0  0  0
    1.8399    1.5235   -2.6202 C   0  0  0  0  0
   -0.1117    1.4771   -0.6272 C   0  0  0  0  0
   -2.9760   -0.3809   -0.3211 C   0  0  0  0  0
   -3.3122   -3.1221   -0.7160 C   0  0  0  0  0
   -2.9134   -2.3083   -1.7765 C   0  0  0  0  0
    2.8501   -0.5698   -1.7016 C   0  0  0  0  0
    2.4992    3.9943   -5.7657 C   0  0  0  0  0
    3.8627    4.2166   -5.1080 C   0  0  0  0  0
    2.3890    2.7143   -6.5969 C   0  0  0  0  0
    3.9567    3.7767   -3.6472 C   0  0  0  0  0
    1.7427    1.5297   -5.8790 C   0  0  0  0  0
    4.0830    2.2687   -3.4431 C   0  0  0  0  0
    2.6519    0.8178   -4.8798 C   0  0  0  0  0
    2.8095    1.5648   -3.6276 N   0  0  0  0  0
   -1.1107    1.4537    0.3924 N   0  0  0  0  0
    2.6056   -1.6335   -2.3826 O   0  0  0  0  0
    3.9430   -0.4009   -1.0447 O   0  0  0  0  0
   -3.5964    1.7225    1.0633 O   0  0  0  0  0
   -2.9647    2.0167   -1.3478 O   0  0  0  0  0
   -2.7673    1.3587   -0.0706 S   0  0  0  0  0
   -3.5362   -4.8267   -0.8966 Cl  0  0  0  0  0
   -2.6130   -2.9390   -3.3579 Cl  0  0  0  0  0
  1  2  1  0  0  0
  3 10  1  0  0  0
  4 11  1  0  0  0
  5  9  1  0  0  0
  6 12  1  0  0  0
  7  8  1  0  0  0
  7 13  1  0  0  0
  8 21  1  0  0  0
  9 22  1  0  0  0
 11 28  1  0  0  0
 12 29  1  0  0  0
 13 23  1  0  0  0
 14 15  1  0  0  0
 14 16  1  0  0  0
 15 17  1  0  0  0
 16 18  1  0  0  0
 17 19  1  0  0  0
 18 20  1  0  0  0
 19 21  1  0  0  0
 20 21  1  0  0  0
 27 10  1  0  0  0
 27 22  1  0  0  0
  1  8  2  0  0  0
  2  9  2  0  0  0
  3  4  2  0  0  0
  5  7  2  0  0  0
  6 10  2  0  0  0
 11 12  2  0  0  0
 13 24  2  0  0  0
 27 25  2  0  0  0
 27 26  2  0  0  0
M  CHG  1  23  -1
M  END
> <rmsd>
0.524559975

$$$$
ZINC16924369


 32 34  0  0  0  0  0  0  0  0999 V2000
   -2.7672   -2.9031   -0.5936 C   0  0  0  0  0
   -3.9849   -3.3418   -0.0738 C   0  0  0  0  0
    2.2323   -1.5148    0.6069 C   0  0  0  0  0
    1.3270   -1.3572    1.6563 C   0  0  0  0  0
   -2.5965   -1.5609   -0.9326 C   0  0  0  0  0
   -5.0320   -2.4382    0.1070 C   0  0  0  0  0
    1.2761    0.4042   -0.5066 C   0  0  0  0  0
    2.2069   -0.6341   -0.4745 C   0  0  0  0  0
    0.3961   -0.3189    1.6241 C   0  0  0  0  0
   -3.6437   -0.6574   -0.7519 C   0  0  0  0  0
    0.3707    0.5618    0.5428 C   0  0  0  0  0
   -4.8615   -1.0960   -0.2322 C   0  0  0  0  0
   -3.5747    1.7489   -0.1628 C   0  0  0  0  0
   -3.1504    1.1054   -2.4100 C   0  0  0  0  0
    3.1633   -0.8003   -1.5807 C   0  0  0  0  0
   -0.5496   -0.1758    2.7474 C   0  0  0  0  0
   -0.7112    2.5752   -0.5145 C   0  0  0  0  0
   -3.1807    3.0906   -0.7348 C   0  0  0  0  0
   -7.8211    0.7986   -1.0342 C   0  0  0  0  0
   -1.8397    3.5378   -0.1761 C   0  0  0  0  0
   -7.1053   -0.5056   -0.7542 C   0  0  0  0  0
   -3.4516    0.7238   -1.1081 N   0  0  0  0  0
   -0.5646    1.6226    0.4898 N   0  0  0  0  0
    3.1191    0.0259   -2.5678 O   0  0  0  0  0
   -0.2110    0.5577    3.7483 O   0  0  0  0  0
   -3.9688    1.6583    0.9977 O   0  0  0  0  0
   -2.9032    0.4149   -3.3876 O   0  0  0  0  0
    4.0129   -1.7667   -1.5257 O   0  0  0  0  0
   -1.6781   -0.7898    2.6852 O   0  0  0  0  0
   -0.0571    2.6768   -1.5470 O   0  0  0  0  0
   -5.8977   -0.2301   -0.0477 O   0  0  0  0  0
   -3.0851    2.8557   -2.5189 S   0  0  0  0  0
  1  2  1  0  0  0
  3  8  1  0  0  0
  4  9  1  0  0  0
  5 10  1  0  0  0
  6 12  1  0  0  0
  7 11  1  0  0  0
  8 15  1  0  0  0
  9 16  1  0  0  0
 10 22  1  0  0  0
 11 23  1  0  0  0
 12 31  1  0  0  0
 13 22  1  0  0  0
 14 22  1  0  0  0
 14 32  1  0  0  0
 15 24  1  0  0  0
 16 25  1  0  0  0
 17 23  1  0  0  0
 18 13  1  0  0  0
 18 20  1  0  0  0
 18 32  1  0  0  0
 19 21  1  0  0  0
 20 17  1  0  0  0
 21 31  1  0  0  0
  1  5  2  0  0  0
  2  6  2  0  0  0
  3  4  2  0  0  0
  7  8  2  0  0  0
  9 11  2  0  0  0
 10 12  2  0  0  0
 13 26  2  0  0  0
 14 27  2  0  0  0
 15 28  2  0  0  0
 16 29  2  0  0  0
 17 30  2  0  0  0
M  CHG  2  24  -1  25  -1
M  END
> <rmsd>
0.329846025

$$$$
ZINC16924369


 32 34  0  0  0  0  0  0  0  0999 V2000
   -4.6266   -2.6177    0.1078 C   0  0  0  0  0
   -3.5918   -3.4177   -0.3769 C   0  0  0  0  0
    2.1328   -1.1137    0.9951 C   0  0  0  0  0
    1.3644   -0.6992    2.0829 C   0  0  0  0  0
   -4.6390   -1.2504   -0.1682 C   0  0  0  0  0
   -2.5695   -2.8504   -1.1376 C   0  0  0  0  0
    1.0021    0.4898   -0.4147 C   0  0  0  0  0
    1.9516   -0.5192   -0.2537 C   0  0  0  0  0
    0.4148    0.3097    1.9220 C   0  0  0  0  0
   -3.6167   -0.6832   -0.9288 C   0  0  0  0  0
    0.2337    0.9043    0.6732 C   0  0  0  0  0
   -2.5818   -1.4832   -1.4135 C   0  0  0  0  0
   -3.6229    1.6772   -0.1735 C   0  0  0  0  0
   -3.7072    1.2179   -2.5029 C   0  0  0  0  0
    2.7635   -0.9562   -1.4008 C   0  0  0  0  0
   -0.3838    0.7285    3.0896 C   0  0  0  0  0
   -1.0165    2.6141   -0.6889 C   0  0  0  0  0
   -3.5045    3.0852   -0.7083 C   0  0  0  0  0
   -0.4819   -0.9580   -4.2893 C   0  0  0  0  0
   -2.1136    3.6407   -0.4499 C   0  0  0  0  0
   -0.9634   -1.7999   -3.1270 C   0  0  0  0  0
   -3.6436    0.7293   -1.2033 N   0  0  0  0  0
   -0.7234    1.9301    0.4874 N   0  0  0  0  0
    2.5769   -0.3916   -2.5433 O   0  0  0  0  0
    0.0629    1.6780    3.8333 O   0  0  0  0  0
   -3.7102    1.4757    1.0357 O   0  0  0  0  0
   -3.6463    0.6174   -3.5656 O   0  0  0  0  0
    3.6339   -1.8891   -1.2248 O   0  0  0  0  0
   -1.4976    0.1285    3.3218 O   0  0  0  0  0
   -0.5008    2.4577   -1.7907 O   0  0  0  0  0
   -1.5731   -0.9493   -2.1585 O   0  0  0  0  0
   -3.8292    2.9684   -2.4770 S   0  0  0  0  0
  1  2  1  0  0  0
  3  8  1  0  0  0
  4  9  1  0  0  0
  5 10  1  0  0  0
  6 12  1  0  0  0
  7 11  1  0  0  0
  8 15  1  0  0  0
  9 16  1  0  0  0
 10 22  1  0  0  0
 11 23  1  0  0  0
 12 31  1  0  0  0
 13 22  1  0  0  0
 14 22  1  0  0  0
 14 32  1  0  0  0
 15 24  1  0  0  0
 16 25  1  0  0  0
 17 23  1  0  0  0
 18 13  1  0  0  0
 18 20  1  0  0  0
 18 32  1  0  0  0
 19 21  1  0  0  0
 20 17  1  0  0  0
 21 31  1  0  0  0
  1  5  2  0  0  0
  2  6  2  0  0  0
  3  4  2  0  0  0
  7  8  2  0  0  0
  9 11  2  0  0  0
 10 12  2  0  0  0
 13 26  2  0  0  0
 14 27  2  0  0  0
 15 28  2  0  0  0
 16 29  2  0  0  0
 17 30  2  0  0  0
M  CHG  2  24  -1  25  -1
M  END
> <rmsd>
0.564517617

$$$$
ZINC16924179


 32 34  0  0  0  0  0  0  0  0999 V2000
    2.1300   -1.1135    0.9958 C   0  0  0  0  0
    1.3625   -0.6975    2.0837 C   0  0  0  0  0
   -2.9728   -1.1584    0.2154 C   0  0  0  0  0
   -4.2416   -1.5760   -1.7979 C   0  0  0  0  0
   -2.9465   -2.5271    0.4828 C   0  0  0  0  0
   -4.2153   -2.9448   -1.5305 C   0  0  0  0  0
    0.9990    0.4889   -0.4150 C   0  0  0  0  0
    1.9483   -0.5202   -0.2535 C   0  0  0  0  0
    0.4132    0.3117    1.9222 C   0  0  0  0  0
   -3.6205   -0.6829   -0.9248 C   0  0  0  0  0
    0.2315    0.9049    0.6729 C   0  0  0  0  0
   -3.5677   -3.4203   -0.3902 C   0  0  0  0  0
   -3.6254    1.6783   -0.1721 C   0  0  0  0  0
   -3.7114    1.2165   -2.5009 C   0  0  0  0  0
    2.7592   -0.9588   -1.4006 C   0  0  0  0  0
   -0.3845    0.7320    3.0900 C   0  0  0  0  0
   -1.0190    2.6137   -0.6903 C   0  0  0  0  0
   -3.5068    3.0857   -0.7086 C   0  0  0  0  0
   -2.1661   -6.6926    0.1715 C   0  0  0  0  0
   -2.1155    3.6410   -0.4517 C   0  0  0  0  0
   -2.4115   -5.2566    0.5830 C   0  0  0  0  0
   -3.6471    0.7294   -1.2009 N   0  0  0  0  0
   -0.7253    1.9309    0.4866 N   0  0  0  0  0
    2.5721   -0.3955   -2.5437 O   0  0  0  0  0
    0.0630    1.6822    3.8323 O   0  0  0  0  0
   -3.7119    1.4783    1.0373 O   0  0  0  0  0
   -3.6513    0.6148   -3.5630 O   0  0  0  0  0
    3.6294   -1.8918   -1.2241 O   0  0  0  0  0
   -1.4984    0.1327    3.3235 O   0  0  0  0  0
   -0.5040    2.4559   -1.7923 O   0  0  0  0  0
   -3.5419   -4.7558   -0.1291 O   0  0  0  0  0
   -3.8327    2.9670   -2.4769 S   0  0  0  0  0
  1  8  1  0  0  0
  2  9  1  0  0  0
  3 10  1  0  0  0
  4  6  1  0  0  0
  5 12  1  0  0  0
  7 11  1  0  0  0
  8 15  1  0  0  0
  9 16  1  0  0  0
 10 22  1  0  0  0
 11 23  1  0  0  0
 12 31  1  0  0  0
 13 22  1  0  0  0
 14 22  1  0  0  0
 14 32  1  0  0  0
 15 24  1  0  0  0
 16 25  1  0  0  0
 17 23  1  0  0  0
 18 13  1  0  0  0
 18 20  1  0  0  0
 18 32  1  0  0  0
 19 21  1  0  0  0
 20 17  1  0  0  0
 21 31  1  0  0  0
  1  2  2  0  0  0
  3  5  2  0  0  0
  4 10  2  0  0  0
  6 12  2  0  0  0
  7  8  2  0  0  0
  9 11  2  0  0  0
 13 26  2  0  0  0
 14 27  2  0  0  0
 15 28  2  0  0  0
 16 29  2  0  0  0
 17 30  2  0  0  0
M  CHG  2  24  -1  25  -1
M  END
> <rmsd>
0.568296194

$$$$
ZINC16924163


 32 34  0  0  0  0  0  0  0  0999 V2000
   -3.3326   -1.0953    0.5287 C   0  0  0  0  0
   -4.1292   -1.5533   -1.7059 C   0  0  0  0  0
   -3.5110   -2.4365    0.8672 C   0  0  0  0  0
   -4.3076   -2.8946   -1.3673 C   0  0  0  0  0
    2.2276   -1.5076    0.6092 C   0  0  0  0  0
    0.3898   -0.3004    1.6103 C   0  0  0  0  0
    1.2843    0.4094   -0.5188 C   0  0  0  0  0
    1.3169   -1.3417    1.6526 C   0  0  0  0  0
    2.2114   -0.6319   -0.4765 C   0  0  0  0  0
   -3.6418   -0.6536   -0.7579 C   0  0  0  0  0
    0.3736    0.5753    0.5245 C   0  0  0  0  0
   -3.9985   -3.3362   -0.0807 C   0  0  0  0  0
   -3.5799    1.7497   -0.1558 C   0  0  0  0  0
   -3.1637    1.1203   -2.4086 C   0  0  0  0  0
    1.3338   -2.2658    2.7981 C   0  0  0  0  0
    3.1724   -0.8073   -1.5778 C   0  0  0  0  0
   -0.7216    2.5899   -0.5165 C   0  0  0  0  0
   -3.1943    3.0961   -0.7223 C   0  0  0  0  0
   -3.1130   -6.6658    0.9764 C   0  0  0  0  0
   -1.8526    3.5458   -0.1676 C   0  0  0  0  0
   -3.2988   -5.1866    1.2393 C   0  0  0  0  0
   -3.4571    0.7303   -1.1073 N   0  0  0  0  0
   -0.5663    1.6324    0.4818 N   0  0  0  0  0
    0.4825   -2.0904    3.7484 O   0  0  0  0  0
    3.1360    0.0146   -2.5685 O   0  0  0  0  0
   -3.9682    1.6510    1.0060 O   0  0  0  0  0
   -2.9183    0.4362   -3.3911 O   0  0  0  0  0
    2.1996   -3.2191    2.8127 O   0  0  0  0  0
    4.0175   -1.7770   -1.5142 O   0  0  0  0  0
   -0.0729    2.6998   -1.5516 O   0  0  0  0  0
   -4.1725   -4.6449    0.2498 O   0  0  0  0  0
   -3.1062    2.8714   -2.5081 S   0  0  0  0  0
  1 10  1  0  0  0
  2  4  1  0  0  0
  3 12  1  0  0  0
  5  8  1  0  0  0
  6 11  1  0  0  0
  7  9  1  0  0  0
  8 15  1  0  0  0
  9 16  1  0  0  0
 10 22  1  0  0  0
 11 23  1  0  0  0
 12 31  1  0  0  0
 13 22  1  0  0  0
 14 22  1  0  0  0
 14 32  1  0  0  0
 15 24  1  0  0  0
 16 25  1  0  0  0
 17 23  1  0  0  0
 18 13  1  0  0  0
 18 20  1  0  0  0
 18 32  1  0  0  0
 19 21  1  0  0  0
 20 17  1  0  0  0
 21 31  1  0  0  0
  1  3  2  0  0  0
  2 10  2  0  0  0
  4 12  2  0  0  0
  5  9  2  0  0  0
  6  8  2  0  0  0
  7 11  2  0  0  0
 13 26  2  0  0  0
 14 27  2  0  0  0
 15 28  2  0  0  0
 16 29  2  0  0  0
 17 30  2  0  0  0
M  CHG  2  24  -1  25  -1
M  END
> <rmsd>
0.329529464

$$$$
ZINC64843321


 32 35  0  0  0  0  0  0  0  0999 V2000
   -3.2794   -2.5849    0.4523 C   0  0  0  0  0
   -2.4333   -2.2555   -1.7865 C   0  0  0  0  0
   -3.2326   -1.2084    0.6726 C   0  0  0  0  0
   -2.3864   -0.8789   -1.5662 C   0  0  0  0  0
    1.0041    0.7848   -0.3095 C   0  0  0  0  0
    0.0110    2.7189   -1.2735 C   0  0  0  0  0
    2.0564    0.9141   -1.2091 C   0  0  0  0  0
   -2.8797   -3.1085   -0.7773 C   0  0  0  0  0
   -0.0420    1.7003   -0.3358 C   0  0  0  0  0
   -2.7861   -0.3553   -0.3367 C   0  0  0  0  0
    2.0154    1.9678   -2.1079 C   0  0  0  0  0
    3.1635   -0.0571   -1.1792 C   0  0  0  0  0
   -2.5756   -7.0795   -2.6028 C   0  0  0  0  0
    4.2935    4.1271   -4.9080 C   0  0  0  0  0
    3.6858    3.1929   -5.9533 C   0  0  0  0  0
   -1.5988   -6.7099   -1.4907 C   0  0  0  0  0
   -3.9625   -6.4958   -2.3505 C   0  0  0  0  0
    5.0881    3.3916   -3.8288 C   0  0  0  0  0
    2.6025    2.2534   -5.4271 C   0  0  0  0  0
   -1.5330   -5.1989   -1.2767 C   0  0  0  0  0
   -3.9083   -4.9836   -2.1407 C   0  0  0  0  0
    4.2394    2.9112   -2.6501 C   0  0  0  0  0
    3.0686    1.3620   -4.2780 C   0  0  0  0  0
   -2.9283   -4.6024   -1.0160 C   0  0  0  0  0
    1.0163    2.8769   -2.1635 N   0  0  0  0  0
    3.0716    2.1042   -3.0167 N   0  0  0  0  0
   -1.1345    1.5940    0.5731 N   0  0  0  0  0
    3.0767   -1.1167   -1.9051 O   0  0  0  0  0
    4.1802    0.1866   -0.4280 O   0  0  0  0  0
   -3.6908    1.6839    0.9859 O   0  0  0  0  0
   -2.8363    2.0493   -1.3456 O   0  0  0  0  0
   -2.7260    1.3915   -0.0578 S   0  0  0  0  0
  1  3  1  0  0  0
  2  8  1  0  0  0
  4 10  1  0  0  0
  5  9  1  0  0  0
  6 25  1  0  0  0
  7 11  1  0  0  0
  7 12  1  0  0  0
  9 27  1  0  0  0
 11 26  1  0  0  0
 12 28  1  0  0  0
 13 16  1  0  0  0
 13 17  1  0  0  0
 14 15  1  0  0  0
 14 18  1  0  0  0
 15 19  1  0  0  0
 16 20  1  0  0  0
 17 21  1  0  0  0
 18 22  1  0  0  0
 19 23  1  0  0  0
 20 24  1  0  0  0
 21 24  1  0  0  0
 22 26  1  0  0  0
 23 26  1  0  0  0
 24  8  1  0  0  0
 32 10  1  0  0  0
 32 27  1  0  0  0
  1  8  2  0  0  0
  2  4  2  0  0  0
  3 10  2  0  0  0
  5  7  2  0  0  0
  6  9  2  0  0  0
 11 25  2  0  0  0
 12 29  2  0  0  0
 32 30  2  0  0  0
 32 31  2  0  0  0
M  CHG  1  28  -1
M  END
> <rmsd>
0.689406574

$$$$
ZINC64843321


 32 35  0  0  0  0  0  0  0  0999 V2000
   -3.5701   -2.5605    0.5584 C   0  0  0  0  0
   -2.9162   -2.3218   -1.7551 C   0  0  0  0  0
   -3.3974   -1.1895    0.7487 C   0  0  0  0  0
   -2.7436   -0.9508   -1.5649 C   0  0  0  0  0
    0.8678    0.4570   -0.6598 C   0  0  0  0  0
   -0.0609    2.4522   -1.5615 C   0  0  0  0  0
    1.8373    0.4943   -1.6558 C   0  0  0  0  0
   -3.3294   -3.1266   -0.6935 C   0  0  0  0  0
   -0.1030    1.4509   -0.6048 C   0  0  0  0  0
   -2.9842   -0.3846   -0.3130 C   0  0  0  0  0
    1.7925    1.5384   -2.5655 C   0  0  0  0  0
    2.8647   -0.5598   -1.7118 C   0  0  0  0  0
   -3.5039   -7.1285   -2.4679 C   0  0  0  0  0
    3.9547    3.4837   -5.6042 C   0  0  0  0  0
    3.1814    2.5886   -6.5713 C   0  0  0  0  0
   -2.4010   -6.8243   -1.4586 C   0  0  0  0  0
   -4.8120   -6.4359   -2.0979 C   0  0  0  0  0
    4.7890    2.7001   -4.5908 C   0  0  0  0  0
    2.0838    1.7420   -5.9297 C   0  0  0  0  0
   -2.1999   -5.3208   -1.2788 C   0  0  0  0  0
   -4.6227   -4.9303   -1.9212 C   0  0  0  0  0
    4.0211    2.2999   -3.3296 C   0  0  0  0  0
    2.5867    0.8293   -4.8133 C   0  0  0  0  0
   -3.5146   -4.6147   -0.8998 C   0  0  0  0  0
    0.8651    2.5219   -2.5440 N   0  0  0  0  0
    2.7655    1.5824   -3.5712 N   0  0  0  0  0
   -1.1097    1.4397    0.4038 N   0  0  0  0  0
    2.6289   -1.6171   -2.4074 O   0  0  0  0  0
    3.9634   -0.3881   -1.0632 O   0  0  0  0  0
   -3.6012    1.7329    1.0514 O   0  0  0  0  0
   -2.9452    2.0058   -1.3557 O   0  0  0  0  0
   -2.7645    1.3551   -0.0723 S   0  0  0  0  0
  1  3  1  0  0  0
  2  8  1  0  0  0
  4 10  1  0  0  0
  5  9  1  0  0  0
  6 25  1  0  0  0
  7 11  1  0  0  0
  7 12  1  0  0  0
  9 27  1  0  0  0
 11 26  1  0  0  0
 12 28  1  0  0  0
 13 16  1  0  0  0
 13 17  1  0  0  0
 14 15  1  0  0  0
 14 18  1  0  0  0
 15 19  1  0  0  0
 16 20  1  0  0  0
 17 21  1  0  0  0
 18 22  1  0  0  0
 19 23  1  0  0  0
 20 24  1  0  0  0
 21 24  1  0  0  0
 22 26  1  0  0  0
 23 26  1  0  0  0
 24  8  1  0  0  0
 32 10  1  0  0  0
 32 27  1  0  0  0
  1  8  2  0  0  0
  2  4  2  0  0  0
  3 10  2  0  0  0
  5  7  2  0  0  0
  6  9  2  0  0  0
 11 25  2  0  0  0
 12 29  2  0  0  0
 32 30  2  0  0  0
 32 31  2  0  0  0
M  CHG  1  28  -1
M  END
> <rmsd>
0.510539889

$$$$
ZINC35397329


 32 35  0  0  0  0  0  0  0  0999 V2000
   -3.2794   -2.5852    0.4522 C   0  0  0  0  0
   -2.4335   -2.2555   -1.7869 C   0  0  0  0  0
   -3.2326   -1.2087    0.6725 C   0  0  0  0  0
   -2.3867   -0.8790   -1.5665 C   0  0  0  0  0
    1.0040    0.7846   -0.3099 C   0  0  0  0  0
    0.0107    2.7188   -1.2738 C   0  0  0  0  0
    2.0562    0.9140   -1.2097 C   0  0  0  0  0
   -2.8798   -3.1086   -0.7775 C   0  0  0  0  0
   -0.0422    1.7001   -0.3361 C   0  0  0  0  0
   -2.7862   -0.3555   -0.3368 C   0  0  0  0  0
    2.0151    1.9677   -2.1083 C   0  0  0  0  0
    3.1633   -0.0572   -1.1799 C   0  0  0  0  0
   -2.5759   -7.0795   -2.6034 C   0  0  0  0  0
   -1.5989   -6.7101   -1.4914 C   0  0  0  0  0
   -3.9628   -6.4959   -2.3509 C   0  0  0  0  0
   -1.5332   -5.1990   -1.2773 C   0  0  0  0  0
   -3.9086   -4.9837   -2.1410 C   0  0  0  0  0
    4.0481    1.6425   -5.2297 C   0  0  0  0  0
    5.4764    2.5064   -3.3663 C   0  0  0  0  0
    2.7952    2.0540   -4.4567 C   0  0  0  0  0
    4.2201    2.9202   -2.6019 C   0  0  0  0  0
   -2.9285   -4.6025   -1.0164 C   0  0  0  0  0
    5.2451    2.5324   -4.8807 C   0  0  0  0  0
    6.4963    2.0802   -5.6299 C   0  0  0  0  0
    1.0160    2.8768   -2.1637 N   0  0  0  0  0
    3.0711    2.1042   -3.0172 N   0  0  0  0  0
   -1.1345    1.5937    0.5730 N   0  0  0  0  0
    3.0763   -1.1167   -1.9059 O   0  0  0  0  0
    4.1800    0.1864   -0.4289 O   0  0  0  0  0
   -3.6907    1.6836    0.9860 O   0  0  0  0  0
   -2.8366    2.0492   -1.3456 O   0  0  0  0  0
   -2.7262    1.3912   -0.0579 S   0  0  0  0  0
  1  8  1  0  0  0
  2  4  1  0  0  0
  3 10  1  0  0  0
  5  9  1  0  0  0
  6 25  1  0  0  0
  7 11  1  0  0  0
  7 12  1  0  0  0
  9 27  1  0  0  0
 11 26  1  0  0  0
 12 28  1  0  0  0
 13 14  1  0  0  0
 13 15  1  0  0  0
 14 16  1  0  0  0
 15 17  1  0  0  0
 16 22  1  0  0  0
 17 22  1  0  0  0
 18 20  1  0  0  0
 18 23  1  0  0  0
 19 21  1  0  0  0
 19 23  1  0  0  0
 20 26  1  0  0  0
 21 26  1  0  0  0
 22  8  1  0  0  0
 23 24  1  0  0  0
 32 10  1  0  0  0
 32 27  1  0  0  0
  1  3  2  0  0  0
  2  8  2  0  0  0
  4 10  2  0  0  0
  5  7  2  0  0  0
  6  9  2  0  0  0
 11 25  2  0  0  0
 12 29  2  0  0  0
 32 30  2  0  0  0
 32 31  2  0  0  0
M  CHG  1  28  -1
M  END
> <rmsd>
0.689384103

$$$$
ZINC35397329


 32 35  0  0  0  0  0  0  0  0999 V2000
   -3.5705   -2.5606    0.5585 C   0  0  0  0  0
   -2.9167   -2.3219   -1.7552 C   0  0  0  0  0
   -3.3978   -1.1897    0.7487 C   0  0  0  0  0
   -2.7440   -0.9510   -1.5649 C   0  0  0  0  0
    0.8675    0.4565   -0.6597 C   0  0  0  0  0
   -0.0610    2.4518   -1.5615 C   0  0  0  0  0
    1.8371    0.4938   -1.6558 C   0  0  0  0  0
   -3.3299   -3.1268   -0.6935 C   0  0  0  0  0
   -0.1032    1.4505   -0.6048 C   0  0  0  0  0
   -2.9845   -0.3848   -0.3129 C   0  0  0  0  0
    1.7923    1.5378   -2.5655 C   0  0  0  0  0
    2.8644   -0.5604   -1.7118 C   0  0  0  0  0
   -3.5047   -7.1286   -2.4680 C   0  0  0  0  0
   -2.4018   -6.8246   -1.4586 C   0  0  0  0  0
   -4.8128   -6.4360   -2.0979 C   0  0  0  0  0
   -2.2006   -5.3210   -1.2788 C   0  0  0  0  0
   -4.6233   -4.9304   -1.9212 C   0  0  0  0  0
    3.4911    1.0216   -5.8563 C   0  0  0  0  0
    5.1506    1.7914   -4.1499 C   0  0  0  0  0
    2.3519    1.5379   -4.9775 C   0  0  0  0  0
    4.0074    2.3102   -3.2794 C   0  0  0  0  0
   -3.5152   -4.6148   -0.8998 C   0  0  0  0  0
    4.7804    1.8191   -5.6364 C   0  0  0  0  0
    5.9169    1.2628   -6.4906 C   0  0  0  0  0
    0.8650    2.5214   -2.5439 N   0  0  0  0  0
    2.7653    1.5818   -3.5711 N   0  0  0  0  0
   -1.1099    1.4394    0.4038 N   0  0  0  0  0
    2.6284   -1.6176   -2.4074 O   0  0  0  0  0
    3.9630   -0.3888   -1.0633 O   0  0  0  0  0
   -3.6014    1.7327    1.0514 O   0  0  0  0  0
   -2.9453    2.0056   -1.3557 O   0  0  0  0  0
   -2.7648    1.3548   -0.0723 S   0  0  0  0  0
  1  8  1  0  0  0
  2  4  1  0  0  0
  3 10  1  0  0  0
  5  9  1  0  0  0
  6 25  1  0  0  0
  7 11  1  0  0  0
  7 12  1  0  0  0
  9 27  1  0  0  0
 11 26  1  0  0  0
 12 28  1  0  0  0
 13 14  1  0  0  0
 13 15  1  0  0  0
 14 16  1  0  0  0
 15 17  1  0  0  0
 16 22  1  0  0  0
 17 22  1  0  0  0
 18 20  1  0  0  0
 18 23  1  0  0  0
 19 21  1  0  0  0
 19 23  1  0  0  0
 20 26  1  0  0  0
 21 26  1  0  0  0
 22  8  1  0  0  0
 23 24  1  0  0  0
 32 10  1  0  0  0
 32 27  1  0  0  0
  1  3  2  0  0  0
  2  8  2  0  0  0
  4 10  2  0  0  0
  5  7  2  0  0  0
  6  9  2  0  0  0
 11 25  2  0  0  0
 12 29  2  0  0  0
 32 30  2  0  0  0
 32 31  2  0  0  0
M  CHG  1  28  -1
M  END
> <rmsd>
0.510176301

$$$$
ZINC35397619


 29 31  0  0  0  0  0  0  0  0999 V2000
   -3.2318   -1.2074    0.6739 C   0  0  0  0  0
   -3.2825   -2.5837    0.4538 C   0  0  0  0  0
    1.0046    0.7854   -0.3098 C   0  0  0  0  0
   -2.3896   -0.8800   -1.5668 C   0  0  0  0  0
    0.0109    2.7194   -1.2738 C   0  0  0  0  0
    2.0568    0.9148   -1.2095 C   0  0  0  0  0
   -0.0418    1.7007   -0.3360 C   0  0  0  0  0
   -2.7853   -0.3554   -0.3364 C   0  0  0  0  0
   -2.8868   -3.1083   -0.7766 C   0  0  0  0  0
   -2.4403   -2.2565   -1.7869 C   0  0  0  0  0
    2.0155    1.9685   -2.1083 C   0  0  0  0  0
    3.1641   -0.0561   -1.1798 C   0  0  0  0  0
    2.7761    4.5474   -5.1423 C   0  0  0  0  0
    4.0490    4.8600   -4.3529 C   0  0  0  0  0
    2.8465    3.2802   -5.9972 C   0  0  0  0  0
    4.0374    4.3984   -2.8958 C   0  0  0  0  0
    2.2296    2.0349   -5.3609 C   0  0  0  0  0
    4.2615    2.9007   -2.7005 C   0  0  0  0  0
    3.0922    1.3743   -4.2880 C   0  0  0  0  0
    1.0161    2.8774   -2.1638 N   0  0  0  0  0
    3.0706    2.1051   -3.0165 N   0  0  0  0  0
   -1.1340    1.5943    0.5730 N   0  0  0  0  0
    3.0773   -1.1157   -1.9055 O   0  0  0  0  0
    4.1808    0.1879   -0.4287 O   0  0  0  0  0
   -3.6903    1.6837    0.9861 O   0  0  0  0  0
   -2.8362    2.0492   -1.3455 O   0  0  0  0  0
   -2.7257    1.3914   -0.0577 S   0  0  0  0  0
   -2.9713   -4.8222   -0.9872 Cl  0  0  0  0  0
   -1.9374   -2.8462   -3.3324 Cl  0  0  0  0  0
  1  2  1  0  0  0
  3  7  1  0  0  0
  4  8  1  0  0  0
  5 20  1  0  0  0
  6 11  1  0  0  0
  6 12  1  0  0  0
  7 22  1  0  0  0
  9 10  1  0  0  0
  9 28  1  0  0  0
 10 29  1  0  0  0
 11 21  1  0  0  0
 12 23  1  0  0  0
 13 14  1  0  0  0
 13 15  1  0  0  0
 14 16  1  0  0  0
 15 17  1  0  0  0
 16 18  1  0  0  0
 17 19  1  0  0  0
 18 21  1  0  0  0
 19 21  1  0  0  0
 27  8  1  0  0  0
 27 22  1  0  0  0
  1  8  2  0  0  0
  2  9  2  0  0  0
  3  6  2  0  0  0
  4 10  2  0  0  0
  5  7  2  0  0  0
 11 20  2  0  0  0
 12 24  2  0  0  0
 27 25  2  0  0  0
 27 26  2  0  0  0
M  CHG  1  23  -1
M  END
> <rmsd>
0.687420368

$$$$
ZINC35397619


 29 31  0  0  0  0  0  0  0  0999 V2000
   -3.3966   -1.1885    0.7498 C   0  0  0  0  0
   -3.5732   -2.5590    0.5600 C   0  0  0  0  0
    0.8684    0.4573   -0.6597 C   0  0  0  0  0
   -2.7468   -0.9517   -1.5652 C   0  0  0  0  0
   -0.0606    2.4525   -1.5615 C   0  0  0  0  0
    1.8380    0.4947   -1.6557 C   0  0  0  0  0
   -0.1026    1.4511   -0.6048 C   0  0  0  0  0
   -2.9834   -0.3847   -0.3128 C   0  0  0  0  0
   -3.3365   -3.1259   -0.6922 C   0  0  0  0  0
   -2.9233   -2.3223   -1.7549 C   0  0  0  0  0
    1.7929    1.5388   -2.5655 C   0  0  0  0  0
    2.8654   -0.5592   -1.7119 C   0  0  0  0  0
    2.4596    4.0180   -5.7029 C   0  0  0  0  0
    3.8214    4.2389   -5.0412 C   0  0  0  0  0
    2.3519    2.7402   -6.5378 C   0  0  0  0  0
    3.9118    3.7951   -3.5813 C   0  0  0  0  0
    1.7040    1.5536   -5.8246 C   0  0  0  0  0
    4.0379    2.2866   -3.3809 C   0  0  0  0  0
    2.6107    0.8392   -4.8250 C   0  0  0  0  0
    0.8654    2.5221   -2.5440 N   0  0  0  0  0
    2.7652    1.5830   -3.5703 N   0  0  0  0  0
   -1.1092    1.4398    0.4037 N   0  0  0  0  0
    2.6297   -1.6166   -2.4073 O   0  0  0  0  0
    3.9641   -0.3873   -1.0632 O   0  0  0  0  0
   -3.6008    1.7326    1.0515 O   0  0  0  0  0
   -2.9448    2.0056   -1.3557 O   0  0  0  0  0
   -2.7641    1.3550   -0.0722 S   0  0  0  0  0
   -3.5715   -4.8301   -0.8633 Cl  0  0  0  0  0
   -2.6149   -2.9658   -3.3297 Cl  0  0  0  0  0
  1  2  1  0  0  0
  3  7  1  0  0  0
  4  8  1  0  0  0
  5 20  1  0  0  0
  6 11  1  0  0  0
  6 12  1  0  0  0
  7 22  1  0  0  0
  9 10  1  0  0  0
  9 28  1  0  0  0
 10 29  1  0  0  0
 11 21  1  0  0  0
 12 23  1  0  0  0
 13 14  1  0  0  0
 13 15  1  0  0  0
 14 16  1  0  0  0
 15 17  1  0  0  0
 16 18  1  0  0  0
 17 19  1  0  0  0
 18 21  1  0  0  0
 19 21  1  0  0  0
 27  8  1  0  0  0
 27 22  1  0  0  0
  1  8  2  0  0  0
  2  9  2  0  0  0
  3  6  2  0  0  0
  4 10  2  0  0  0
  5  7  2  0  0  0
 11 20  2  0  0  0
 12 24  2  0  0  0
 27 25  2  0  0  0
 27 26  2  0  0  0
M  CHG  1  23  -1
M  END
> <rmsd>
0.508656025

$$$$
ZINC59121454


 33 36  0  0  0  0  0  0  0  0999 V2000
   -2.5143   -5.4986   -3.8427 C   0  0  0  0  0
   -4.4040   -2.0891    1.0257 C   0  0  0  0  0
   -1.4041   -4.6900   -4.0862 C   0  0  0  0  0
   -3.7560   -4.9186   -3.5825 C   0  0  0  0  0
   -3.1186   -2.3006    0.5272 C   0  0  0  0  0
   -5.3317   -1.3642    0.2776 C   0  0  0  0  0
    2.6279    0.5052    1.5364 C   0  0  0  0  0
   -1.5355   -3.3015   -4.0694 C   0  0  0  0  0
   -3.8873   -3.5300   -3.5657 C   0  0  0  0  0
   -2.7608   -1.7870   -0.7194 C   0  0  0  0  0
   -4.9739   -0.8507   -0.9690 C   0  0  0  0  0
    1.3151    0.9766    1.5288 C   0  0  0  0  0
    3.2081    0.0383    0.3569 C   0  0  0  0  0
    1.1626    0.5138   -0.8376 C   0  0  0  0  0
   -2.6744   -0.3602   -4.7812 C   0  0  0  0  0
   -2.7771   -2.7215   -3.8091 C   0  0  0  0  0
   -3.6884   -1.0621   -1.4676 C   0  0  0  0  0
    0.5825    0.9808    0.3418 C   0  0  0  0  0
    2.4754    0.0426   -0.8301 C   0  0  0  0  0
   -2.9132   -1.2841   -3.7913 C   0  0  0  0  0
   -3.3256    0.7663   -3.0966 C   0  0  0  0  0
   -3.3686    2.4257    0.4797 C   0  0  0  0  0
   -2.6517    1.9255   -0.7272 C   0  0  0  0  0
   -3.2480    3.8916    0.7801 C   0  0  0  0  0
   -2.9328    0.9143   -4.3423 N   0  0  0  0  0
   -1.4482    1.4753   -0.8086 N   0  0  0  0  0
   -3.3293   -0.5475   -2.7182 N   0  0  0  0  0
   -0.7389    1.4550    0.3342 N   0  0  0  0  0
    3.0668   -0.4349   -2.0299 N   0  0  0  0  0
    4.2483   -0.8556   -1.9994 O   0  0  0  0  0
   -4.0527    1.6359    1.1142 O   0  0  0  0  0
    2.3911   -0.4231   -3.0870 O   0  0  0  0  0
   -3.7995    2.0995   -2.0118 S   0  0  0  0  0
  1  3  1  0  0  0
  2  5  1  0  0  0
  4  9  1  0  0  0
  6 11  1  0  0  0
  7 13  1  0  0  0
  8 16  1  0  0  0
 10 17  1  0  0  0
 12 18  1  0  0  0
 14 19  1  0  0  0
 15 25  1  0  0  0
 16 20  1  0  0  0
 17 27  1  0  0  0
 18 28  1  0  0  0
 19 29  1  0  0  0
 20 27  1  0  0  0
 21 27  1  0  0  0
 21 33  1  0  0  0
 22 23  1  0  0  0
 23 33  1  0  0  0
 24 22  1  0  0  0
 28 26  1  0  0  0
 29 30  1  0  0  0
  1  4  2  0  0  0
  2  6  2  0  0  0
  3  8  2  0  0  0
  5 10  2  0  0  0
  7 12  2  0  0  0
  9 16  2  0  0  0
 11 17  2  0  0  0
 13 19  2  0  0  0
 14 18  2  0  0  0
 15 20  2  0  0  0
 21 25  2  0  0  0
 22 31  2  0  0  0
 23 26  2  0  0  0
 29 32  2  0  0  0
M  CHG  2  29   1  30  -1
M  END
> <rmsd>
0.373065382

$$$$
ZINC64580540


 32 35  0  0  0  0  0  0  0  0999 V2000
   -3.2445   -2.5887    0.4333 C   0  0  0  0  0
   -2.4210   -2.2384   -1.8109 C   0  0  0  0  0
    1.0206    2.8836   -2.1914 C   0  0  0  0  0
   -0.0386    2.7666   -1.2916 C   0  0  0  0  0
   -3.2074   -1.2132    0.6616 C   0  0  0  0  0
   -2.3840   -0.8628   -1.5826 C   0  0  0  0  0
    0.9953    0.8065   -0.3293 C   0  0  0  0  0
    2.0545    0.9234   -1.2292 C   0  0  0  0  0
   -2.8512   -3.1014   -0.8030 C   0  0  0  0  0
    2.0673    1.9619   -2.1604 C   0  0  0  0  0
   -0.0512    1.7281   -0.3604 C   0  0  0  0  0
   -2.7772   -0.3503   -0.3463 C   0  0  0  0  0
    3.1487   -0.0644   -1.1750 C   0  0  0  0  0
   -2.5293   -7.0584   -2.6555 C   0  0  0  0  0
   -1.5458   -6.6874   -1.5498 C   0  0  0  0  0
   -3.9188   -6.4883   -2.3874 C   0  0  0  0  0
   -1.4911   -5.1770   -1.3271 C   0  0  0  0  0
   -3.8758   -4.9770   -2.1688 C   0  0  0  0  0
    4.2709    2.9154   -2.6669 C   0  0  0  0  0
    2.8439    2.0449   -4.5112 C   0  0  0  0  0
    5.5172    2.5115   -3.4430 C   0  0  0  0  0
    4.0941    1.6475   -5.2858 C   0  0  0  0  0
   -2.8892   -4.5941   -1.0504 C   0  0  0  0  0
    6.4530    2.3131   -5.7464 C   0  0  0  0  0
    3.1207    2.0967   -3.0721 N   0  0  0  0  0
   -1.1357    1.6088    0.5605 N   0  0  0  0  0
    5.2249    2.5746   -4.9207 N   0  0  0  0  0
    3.0526   -1.1306   -1.8882 O   0  0  0  0  0
    4.1593    0.1758   -0.4163 O   0  0  0  0  0
   -3.6864    1.6728    0.9977 O   0  0  0  0  0
   -2.8585    2.0600   -1.3398 O   0  0  0  0  0
   -2.7297    1.3953   -0.0573 S   0  0  0  0  0
  1  9  1  0  0  0
  2  6  1  0  0  0
  3 10  1  0  0  0
  4 11  1  0  0  0
  5 12  1  0  0  0
  7  8  1  0  0  0
  8 13  1  0  0  0
 10 25  1  0  0  0
 11 26  1  0  0  0
 13 28  1  0  0  0
 14 15  1  0  0  0
 14 16  1  0  0  0
 15 17  1  0  0  0
 16 18  1  0  0  0
 17 23  1  0  0  0
 18 23  1  0  0  0
 19 21  1  0  0  0
 19 25  1  0  0  0
 20 22  1  0  0  0
 20 25  1  0  0  0
 21 27  1  0  0  0
 22 27  1  0  0  0
 23  9  1  0  0  0
 24 27  1  0  0  0
 32 12  1  0  0  0
 32 26  1  0  0  0
  1  5  2  0  0  0
  2  9  2  0  0  0
  3  4  2  0  0  0
  6 12  2  0  0  0
  7 11  2  0  0  0
  8 10  2  0  0  0
 13 29  2  0  0  0
 32 30  2  0  0  0
 32 31  2  0  0  0
M  CHG  2  27   1  28  -1
M  END
> <rmsd>
0.707192004

$$$$
ZINC64580540


 32 35  0  0  0  0  0  0  0  0999 V2000
   -3.5399   -2.5663    0.5393 C   0  0  0  0  0
   -2.9065   -2.3073   -1.7777 C   0  0  0  0  0
    0.8687    2.5241   -2.5716 C   0  0  0  0  0
   -0.1071    2.5009   -1.5753 C   0  0  0  0  0
   -3.3756   -1.1955    0.7376 C   0  0  0  0  0
   -2.7422   -0.9363   -1.5795 C   0  0  0  0  0
    0.8585    0.4768   -0.6767 C   0  0  0  0  0
    1.8343    0.4999   -1.6731 C   0  0  0  0  0
   -3.3052   -3.1223   -0.7183 C   0  0  0  0  0
    1.8394    1.5236   -2.6206 C   0  0  0  0  0
   -0.1122    1.4773   -0.6277 C   0  0  0  0  0
   -2.9768   -0.3805   -0.3219 C   0  0  0  0  0
    2.8492   -0.5700   -1.7023 C   0  0  0  0  0
   -3.4649   -7.1132   -2.5185 C   0  0  0  0  0
   -2.3561   -6.8079   -1.5160 C   0  0  0  0  0
   -4.7749   -6.4328   -2.1333 C   0  0  0  0  0
   -2.1645   -5.3041   -1.3276 C   0  0  0  0  0
   -4.5952   -4.9271   -1.9479 C   0  0  0  0  0
    4.0526    2.2953   -3.3472 C   0  0  0  0  0
    2.3957    1.5186   -5.0345 C   0  0  0  0  0
    5.1855    1.7861   -4.2279 C   0  0  0  0  0
    3.5332    1.0155   -5.9143 C   0  0  0  0  0
   -3.4812   -4.6102   -0.9332 C   0  0  0  0  0
    5.8826    1.4888   -6.6041 C   0  0  0  0  0
    2.8097    1.5649   -3.6286 N   0  0  0  0  0
   -1.1113    1.4539    0.3919 N   0  0  0  0  0
    4.7614    1.8552   -5.6730 N   0  0  0  0  0
    2.6046   -1.6334   -2.3834 O   0  0  0  0  0
    3.9422   -0.4012   -1.0453 O   0  0  0  0  0
   -3.5970    1.7229    1.0628 O   0  0  0  0  0
   -2.9652    2.0173   -1.3483 O   0  0  0  0  0
   -2.7680    1.3591   -0.0711 S   0  0  0  0  0
  1  9  1  0  0  0
  2  6  1  0  0  0
  3 10  1  0  0  0
  4 11  1  0  0  0
  5 12  1  0  0  0
  7  8  1  0  0  0
  8 13  1  0  0  0
 10 25  1  0  0  0
 11 26  1  0  0  0
 13 28  1  0  0  0
 14 15  1  0  0  0
 14 16  1  0  0  0
 15 17  1  0  0  0
 16 18  1  0  0  0
 17 23  1  0  0  0
 18 23  1  0  0  0
 19 21  1  0  0  0
 19 25  1  0  0  0
 20 22  1  0  0  0
 20 25  1  0  0  0
 21 27  1  0  0  0
 22 27  1  0  0  0
 23  9  1  0  0  0
 24 27  1  0  0  0
 32 12  1  0  0  0
 32 26  1  0  0  0
  1  5  2  0  0  0
  2  9  2  0  0  0
  3  4  2  0  0  0
  6 12  2  0  0  0
  7 11  2  0  0  0
  8 10  2  0  0  0
 13 29  2  0  0  0
 32 30  2  0  0  0
 32 31  2  0  0  0
M  CHG  2  27   1  28  -1
M  END
> <rmsd>
0.526091874

$$$$
ZINC33253597


 32 35  0  0  0  0  0  0  0  0999 V2000
   -3.2444   -2.5884    0.4334 C   0  0  0  0  0
   -2.4208   -2.2381   -1.8107 C   0  0  0  0  0
    1.0206    2.8840   -2.1911 C   0  0  0  0  0
   -0.0387    2.7670   -1.2913 C   0  0  0  0  0
   -3.2075   -1.2129    0.6618 C   0  0  0  0  0
   -2.3839   -0.8626   -1.5823 C   0  0  0  0  0
    0.9953    0.8069   -0.3289 C   0  0  0  0  0
    2.0545    0.9239   -1.2288 C   0  0  0  0  0
   -2.8511   -3.1011   -0.8028 C   0  0  0  0  0
    2.0672    1.9623   -2.1600 C   0  0  0  0  0
   -0.0513    1.7285   -0.3601 C   0  0  0  0  0
   -2.7773   -0.3500   -0.3462 C   0  0  0  0  0
    3.1487   -0.0639   -1.1746 C   0  0  0  0  0
    8.7937    2.0830   -7.4303 C   0  0  0  0  0
    7.5125    1.3415   -7.7964 C   0  0  0  0  0
    8.9532    2.1967   -5.9181 C   0  0  0  0  0
    4.0907    1.6329   -5.2895 C   0  0  0  0  0
    5.5271    2.4997   -3.4279 C   0  0  0  0  0
    2.8398    2.0436   -4.5119 C   0  0  0  0  0
    4.2727    2.9134   -2.6592 C   0  0  0  0  0
    6.2912    1.9680   -7.1388 C   0  0  0  0  0
    7.7268    2.8199   -5.2671 C   0  0  0  0  0
    5.2736    2.5247   -4.9310 C   0  0  0  0  0
   -2.8884   -4.5718   -1.0465 C   0  0  0  0  0
    3.1211    2.0972   -3.0720 N   0  0  0  0  0
   -1.1360    1.6091    0.5607 N   0  0  0  0  0
    6.4995    2.0241   -5.6438 N   0  0  0  0  0
    3.0526   -1.1302   -1.8877 O   0  0  0  0  0
    4.1592    0.1764   -0.4159 O   0  0  0  0  0
   -3.6865    1.6731    0.9978 O   0  0  0  0  0
   -2.8587    2.0603   -1.3397 O   0  0  0  0  0
   -2.7297    1.3956   -0.0571 S   0  0  0  0  0
  1  9  1  0  0  0
  2  6  1  0  0  0
  3 10  1  0  0  0
  4 11  1  0  0  0
  5 12  1  0  0  0
  7  8  1  0  0  0
  8 13  1  0  0  0
 10 25  1  0  0  0
 11 26  1  0  0  0
 13 28  1  0  0  0
 14 15  1  0  0  0
 14 16  1  0  0  0
 15 21  1  0  0  0
 16 22  1  0  0  0
 17 19  1  0  0  0
 17 23  1  0  0  0
 18 20  1  0  0  0
 18 23  1  0  0  0
 19 25  1  0  0  0
 20 25  1  0  0  0
 21 27  1  0  0  0
 22 27  1  0  0  0
 23 27  1  0  0  0
 24  9  1  0  0  0
 32 12  1  0  0  0
 32 26  1  0  0  0
  1  5  2  0  0  0
  2  9  2  0  0  0
  3  4  2  0  0  0
  6 12  2  0  0  0
  7 11  2  0  0  0
  8 10  2  0  0  0
 13 29  2  0  0  0
 32 30  2  0  0  0
 32 31  2  0  0  0
M  CHG  2  27   1  28  -1
M  END
> <rmsd>
0.707154334

$$$$
ZINC33253597


 32 35  0  0  0  0  0  0  0  0999 V2000
   -3.5400   -2.5660    0.5396 C   0  0  0  0  0
   -2.9067   -2.3070   -1.7775 C   0  0  0  0  0
    0.8684    2.5243   -2.5717 C   0  0  0  0  0
   -0.1074    2.5011   -1.5753 C   0  0  0  0  0
   -3.3757   -1.1952    0.7378 C   0  0  0  0  0
   -2.7424   -0.9361   -1.5793 C   0  0  0  0  0
    0.8583    0.4769   -0.6768 C   0  0  0  0  0
    1.8340    0.5001   -1.6732 C   0  0  0  0  0
   -3.3055   -3.1221   -0.7180 C   0  0  0  0  0
    1.8391    1.5237   -2.6208 C   0  0  0  0  0
   -0.1123    1.4775   -0.6277 C   0  0  0  0  0
   -2.9770   -0.3802   -0.3217 C   0  0  0  0  0
    2.8490   -0.5699   -1.7025 C   0  0  0  0  0
    8.0289    1.0558   -8.4948 C   0  0  0  0  0
    6.6656    0.4130   -8.7263 C   0  0  0  0  0
    8.3383    1.1737   -7.0064 C   0  0  0  0  0
    3.5276    1.0008   -5.9181 C   0  0  0  0  0
    5.1954    1.7732   -4.2146 C   0  0  0  0  0
    2.3908    1.5173   -5.0354 C   0  0  0  0  0
    4.0545    2.2928   -3.3405 C   0  0  0  0  0
    5.5635    1.1410   -7.9699 C   0  0  0  0  0
    7.2304    1.8987   -6.2560 C   0  0  0  0  0
    4.8042    1.8009   -5.6878 C   0  0  0  0  0
   -3.4789   -4.5879   -0.9297 C   0  0  0  0  0
    2.8097    1.5650   -3.6292 N   0  0  0  0  0
   -1.1115    1.4541    0.3920 N   0  0  0  0  0
    5.9154    1.1976   -6.5021 N   0  0  0  0  0
    2.6043   -1.6333   -2.3835 O   0  0  0  0  0
    3.9420   -0.4011   -1.0456 O   0  0  0  0  0
   -3.5970    1.7232    1.0630 O   0  0  0  0  0
   -2.9654    2.0176   -1.3482 O   0  0  0  0  0
   -2.7680    1.3594   -0.0710 S   0  0  0  0  0
  1  9  1  0  0  0
  2  6  1  0  0  0
  3 10  1  0  0  0
  4 11  1  0  0  0
  5 12  1  0  0  0
  7  8  1  0  0  0
  8 13  1  0  0  0
 10 25  1  0  0  0
 11 26  1  0  0  0
 13 28  1  0  0  0
 14 15  1  0  0  0
 14 16  1  0  0  0
 15 21  1  0  0  0
 16 22  1  0  0  0
 17 19  1  0  0  0
 17 23  1  0  0  0
 18 20  1  0  0  0
 18 23  1  0  0  0
 19 25  1  0  0  0
 20 25  1  0  0  0
 21 27  1  0  0  0
 22 27  1  0  0  0
 23 27  1  0  0  0
 24  9  1  0  0  0
 32 12  1  0  0  0
 32 26  1  0  0  0
  1  5  2  0  0  0
  2  9  2  0  0  0
  3  4  2  0  0  0
  6 12  2  0  0  0
  7 11  2  0  0  0
  8 10  2  0  0  0
 13 29  2  0  0  0
 32 30  2  0  0  0
 32 31  2  0  0  0
M  CHG  2  27   1  28  -1
M  END
> <rmsd>
0.526077151

$$$$
ZINC32962136


 32 34  0  0  0  0  0  0  0  0999 V2000
   -3.5358   -2.5639    0.5360 C   0  0  0  0  0
   -0.1358    2.4678   -1.6184 C   0  0  0  0  0
    0.8295    2.4760   -2.6253 C   0  0  0  0  0
   -3.3767   -1.1926    0.7338 C   0  0  0  0  0
    0.8577    0.4745   -0.6822 C   0  0  0  0  0
   -2.7443   -0.9356   -1.5801 C   0  0  0  0  0
    1.8230    0.4826   -1.6890 C   0  0  0  0  0
   -3.2931   -3.1375   -0.7213 C   0  0  0  0  0
   -2.9109   -2.3121   -1.7951 C   0  0  0  0  0
   -0.1217    1.4670   -0.6468 C   0  0  0  0  0
    1.8089    1.4835   -2.6606 C   0  0  0  0  0
   -2.9788   -0.3793   -0.3231 C   0  0  0  0  0
    2.8482   -0.5778   -1.7031 C   0  0  0  0  0
   -3.5088   -4.6192   -0.9039 C   0  0  0  0  0
   -2.6155   -2.8812   -3.1604 C   0  0  0  0  0
   -2.8614   -5.1712   -2.1726 C   0  0  0  0  0
   -3.1871   -4.2826   -3.3662 C   0  0  0  0  0
    5.7053    1.3252   -3.1139 C   0  0  0  0  0
    5.7169    3.8341   -2.9407 C   0  0  0  0  0
    1.2644    1.3821   -6.2653 C   0  0  0  0  0
    1.7159   -1.0919   -6.2818 C   0  0  0  0  0
    3.6571    2.6494   -3.8376 C   0  0  0  0  0
    2.9087    0.3886   -4.5976 C   0  0  0  0  0
    4.8531    2.5736   -2.8808 C   0  0  0  0  0
    1.6304    0.1650   -5.4147 C   0  0  0  0  0
   -1.1175    1.4585    0.3906 N   0  0  0  0  0
    2.7769    1.5089   -3.6892 N   0  0  0  0  0
    2.6073   -1.6595   -2.3564 O   0  0  0  0  0
    3.9459   -0.3830   -1.0614 O   0  0  0  0  0
   -3.5929    1.7221    1.0673 O   0  0  0  0  0
   -2.9727    2.0199   -1.3465 O   0  0  0  0  0
   -2.7721    1.3363   -0.0745 S   0  0  0  0  0
  1  8  1  0  0  0
  2 10  1  0  0  0
  3 11  1  0  0  0
  4 12  1  0  0  0
  5  7  1  0  0  0
  6  9  1  0  0  0
  7 13  1  0  0  0
 10 26  1  0  0  0
 11 27  1  0  0  0
 13 28  1  0  0  0
 14  8  1  0  0  0
 14 16  1  0  0  0
 15  9  1  0  0  0
 15 17  1  0  0  0
 16 17  1  0  0  0
 18 24  1  0  0  0
 19 24  1  0  0  0
 20 25  1  0  0  0
 21 25  1  0  0  0
 22 24  1  0  0  0
 22 27  1  0  0  0
 23 25  1  0  0  0
 23 27  1  0  0  0
 32 12  1  0  0  0
 32 26  1  0  0  0
  1  4  2  0  0  0
  2  3  2  0  0  0
  5 10  2  0  0  0
  6 12  2  0  0  0
  7 11  2  0  0  0
  8  9  2  0  0  0
 13 29  2  0  0  0
 32 30  2  0  0  0
 32 31  2  0  0  0
M  CHG  1  28  -1
M  END
> <rmsd>
0.529742718

$$$$
ZINC32962136


 32 34  0  0  0  0  0  0  0  0999 V2000
   -3.2323   -2.5865    0.4256 C   0  0  0  0  0
   -0.0693    2.7417   -1.3420 C   0  0  0  0  0
    0.9789    2.8470   -2.2563 C   0  0  0  0  0
   -3.2028   -1.2113    0.6553 C   0  0  0  0  0
    0.9935    0.8144   -0.3456 C   0  0  0  0  0
   -2.3875   -0.8575   -1.5876 C   0  0  0  0  0
    2.0418    0.9196   -1.2598 C   0  0  0  0  0
   -2.8319   -3.1132   -0.8118 C   0  0  0  0  0
   -2.4225   -2.2382   -1.8351 C   0  0  0  0  0
   -0.0619    1.7253   -0.3866 C   0  0  0  0  0
    2.0344    1.9360   -2.2151 C   0  0  0  0  0
   -2.7782   -0.3475   -0.3499 C   0  0  0  0  0
    3.1462   -0.0559   -1.1943 C   0  0  0  0  0
   -2.9100   -4.6032   -1.0331 C   0  0  0  0  0
   -1.9605   -2.7539   -3.1752 C   0  0  0  0  0
   -2.1087   -5.0760   -2.2445 C   0  0  0  0  0
   -2.3963   -4.1917   -3.4510 C   0  0  0  0  0
    5.9558    2.0960   -2.3127 C   0  0  0  0  0
    5.7494    4.5938   -2.1057 C   0  0  0  0  0
    1.8265    1.8661   -5.8556 C   0  0  0  0  0
    2.4758   -0.5635   -5.8637 C   0  0  0  0  0
    3.8810    3.2685   -3.2027 C   0  0  0  0  0
    3.3888    0.9717   -4.0580 C   0  0  0  0  0
    4.9882    3.2679   -2.1418 C   0  0  0  0  0
    2.2115    0.6645   -4.9914 C   0  0  0  0  0
   -1.1432    1.6167    0.5553 N   0  0  0  0  0
    3.0859    2.0591   -3.1506 N   0  0  0  0  0
    3.0532   -1.1395   -1.8811 O   0  0  0  0  0
    4.1624    0.2120   -0.4524 O   0  0  0  0  0
   -3.6825    1.6696    1.0064 O   0  0  0  0  0
   -2.8737    2.0651   -1.3365 O   0  0  0  0  0
   -2.7339    1.3736   -0.0607 S   0  0  0  0  0
  1  8  1  0  0  0
  2 10  1  0  0  0
  3 11  1  0  0  0
  4 12  1  0  0  0
  5  7  1  0  0  0
  6  9  1  0  0  0
  7 13  1  0  0  0
 10 26  1  0  0  0
 11 27  1  0  0  0
 13 28  1  0  0  0
 14  8  1  0  0  0
 14 16  1  0  0  0
 15  9  1  0  0  0
 15 17  1  0  0  0
 16 17  1  0  0  0
 18 24  1  0  0  0
 19 24  1  0  0  0
 20 25  1  0  0  0
 21 25  1  0  0  0
 22 24  1  0  0  0
 22 27  1  0  0  0
 23 25  1  0  0  0
 23 27  1  0  0  0
 32 12  1  0  0  0
 32 26  1  0  0  0
  1  4  2  0  0  0
  2  3  2  0  0  0
  5 10  2  0  0  0
  6 12  2  0  0  0
  7 11  2  0  0  0
  8  9  2  0  0  0
 13 29  2  0  0  0
 32 30  2  0  0  0
 32 31  2  0  0  0
M  CHG  1  28  -1
M  END
> <rmsd>
0.713828266

$$$$
ZINC09065518


 33 36  0  0  0  0  0  0  0  0999 V2000
   -2.4744   -5.4371   -4.0126 C   0  0  0  0  0
   -4.3869   -2.1812    0.9853 C   0  0  0  0  0
   -1.3742   -4.6093   -4.2354 C   0  0  0  0  0
   -3.7206   -4.8793   -3.7273 C   0  0  0  0  0
   -3.1019   -2.3729    0.4776 C   0  0  0  0  0
   -5.3215   -1.4443    0.2578 C   0  0  0  0  0
    2.6279    0.5146    1.5344 C   0  0  0  0  0
   -1.5200   -3.2235   -4.1729 C   0  0  0  0  0
   -3.8666   -3.4935   -3.6647 C   0  0  0  0  0
   -2.7515   -1.8276   -0.7575 C   0  0  0  0  0
   -4.9710   -0.8991   -0.9773 C   0  0  0  0  0
    1.3160    0.9885    1.5279 C   0  0  0  0  0
    3.2042    0.0414    0.3556 C   0  0  0  0  0
    1.1567    0.5157   -0.8360 C   0  0  0  0  0
   -2.7663   -2.6656   -3.8875 C   0  0  0  0  0
   -3.6861   -1.0907   -1.4850 C   0  0  0  0  0
    0.5804    0.9890    0.3427 C   0  0  0  0  0
    2.4687    0.0418   -0.8295 C   0  0  0  0  0
   -2.9175   -1.2305   -3.8222 C   0  0  0  0  0
   -3.3364    0.7672   -3.0852 C   0  0  0  0  0
   -3.3674    2.4424    0.4838 C   0  0  0  0  0
   -2.6545    1.9355   -0.7225 C   0  0  0  0  0
   -3.2431    3.9093    0.7775 C   0  0  0  0  0
   -2.6769   -0.3896   -4.8026 N   0  0  0  0  0
   -2.9434    0.8814   -4.3337 N   0  0  0  0  0
   -1.4520    1.4825   -0.8049 N   0  0  0  0  0
   -3.3350   -0.5454   -2.7217 N   0  0  0  0  0
   -0.7400    1.4658    0.3363 N   0  0  0  0  0
    3.0562   -0.4420   -2.0287 N   0  0  0  0  0
    4.2370   -0.8650   -1.9993 O   0  0  0  0  0
   -4.0515    1.6567    1.1235 O   0  0  0  0  0
    2.3779   -0.4337   -3.0842 O   0  0  0  0  0
   -3.8049    2.1061   -2.0050 S   0  0  0  0  0
  1  3  1  0  0  0
  2  5  1  0  0  0
  4  9  1  0  0  0
  6 11  1  0  0  0
  7 13  1  0  0  0
  8 15  1  0  0  0
 10 16  1  0  0  0
 12 17  1  0  0  0
 14 18  1  0  0  0
 15 19  1  0  0  0
 16 27  1  0  0  0
 17 28  1  0  0  0
 18 29  1  0  0  0
 19 27  1  0  0  0
 20 27  1  0  0  0
 20 33  1  0  0  0
 21 22  1  0  0  0
 22 33  1  0  0  0
 23 21  1  0  0  0
 24 25  1  0  0  0
 28 26  1  0  0  0
 29 30  1  0  0  0
  1  4  2  0  0  0
  2  6  2  0  0  0
  3  8  2  0  0  0
  5 10  2  0  0  0
  7 12  2  0  0  0
  9 15  2  0  0  0
 11 16  2  0  0  0
 13 18  2  0  0  0
 14 17  2  0  0  0
 19 24  2  0  0  0
 20 25  2  0  0  0
 21 31  2  0  0  0
 22 26  2  0  0  0
 29 32  2  0  0  0
M  CHG  2  29   1  30  -1
M  END
> <rmsd>
0.368216485

$$$$
ZINC64843358


 32 34  0  0  0  0  0  0  0  0999 V2000
   -3.2645   -2.5829    0.4430 C   0  0  0  0  0
   -3.2260   -1.2067    0.6650 C   0  0  0  0  0
    1.0036    0.7940   -0.3281 C   0  0  0  0  0
   -2.3873   -0.8728   -1.5723 C   0  0  0  0  0
   -0.0199    2.6931   -1.3293 C   0  0  0  0  0
    2.0442    0.9103   -1.2430 C   0  0  0  0  0
   -2.8572   -3.1202   -0.7875 C   0  0  0  0  0
   -2.4314   -2.2546   -1.8121 C   0  0  0  0  0
   -0.0519    1.6984   -0.3654 C   0  0  0  0  0
   -2.7852   -0.3522   -0.3414 C   0  0  0  0  0
    1.9822    1.9402   -2.1678 C   0  0  0  0  0
    3.1611   -0.0490   -1.2014 C   0  0  0  0  0
   -2.9454   -4.6108   -1.0007 C   0  0  0  0  0
   -1.9614   -2.7818   -3.1449 C   0  0  0  0  0
   -2.1369   -5.0972   -2.2021 C   0  0  0  0  0
   -2.4063   -4.2177   -3.4162 C   0  0  0  0  0
    1.7791    1.9051   -5.8090 C   0  0  0  0  0
    2.4073   -0.5300   -5.8350 C   0  0  0  0  0
    5.9038    2.1335   -2.2529 C   0  0  0  0  0
    5.6715    4.6303   -2.0614 C   0  0  0  0  0
    3.3328    0.9838   -4.0175 C   0  0  0  0  0
    3.8213    3.2801   -3.1591 C   0  0  0  0  0
    2.1534    0.6937   -4.9536 C   0  0  0  0  0
    4.9237    3.2966   -2.0931 C   0  0  0  0  0
    0.9735    2.8378   -2.2348 N   0  0  0  0  0
   -1.1425    1.6039    0.5672 N   0  0  0  0  0
    3.0395    2.0651   -3.1037 N   0  0  0  0  0
    3.0765   -1.1276   -1.8990 O   0  0  0  0  0
    4.1840    0.2237   -0.4688 O   0  0  0  0  0
   -3.6853    1.6801    0.9947 O   0  0  0  0  0
   -2.8520    2.0552   -1.3429 O   0  0  0  0  0
   -2.7295    1.3701   -0.0618 S   0  0  0  0  0
  1  7  1  0  0  0
  2 10  1  0  0  0
  3  9  1  0  0  0
  4  8  1  0  0  0
  5 25  1  0  0  0
  6 11  1  0  0  0
  6 12  1  0  0  0
  9 26  1  0  0  0
 11 27  1  0  0  0
 12 28  1  0  0  0
 13  7  1  0  0  0
 13 15  1  0  0  0
 14  8  1  0  0  0
 14 16  1  0  0  0
 15 16  1  0  0  0
 17 23  1  0  0  0
 18 23  1  0  0  0
 19 24  1  0  0  0
 20 24  1  0  0  0
 21 23  1  0  0  0
 21 27  1  0  0  0
 22 24  1  0  0  0
 22 27  1  0  0  0
 32 10  1  0  0  0
 32 26  1  0  0  0
  1  2  2  0  0  0
  3  6  2  0  0  0
  4 10  2  0  0  0
  5  9  2  0  0  0
  7  8  2  0  0  0
 11 25  2  0  0  0
 12 29  2  0  0  0
 32 30  2  0  0  0
 32 31  2  0  0  0
M  CHG  1  28  -1
M  END
> <rmsd>
0.697590113

$$$$
ZINC64843358


 32 34  0  0  0  0  0  0  0  0999 V2000
   -3.5639   -2.5581    0.5536 C   0  0  0  0  0
   -3.3970   -1.1868    0.7437 C   0  0  0  0  0
    0.8682    0.4555   -0.6666 C   0  0  0  0  0
   -2.7429   -0.9497   -1.5664 C   0  0  0  0  0
   -0.0900    2.4176   -1.6093 C   0  0  0  0  0
    1.8267    0.4764   -1.6738 C   0  0  0  0  0
   -3.3144   -3.1420   -0.6976 C   0  0  0  0  0
   -2.9173   -2.3265   -1.7735 C   0  0  0  0  0
   -0.1118    1.4411   -0.6267 C   0  0  0  0  0
   -2.9843   -0.3833   -0.3153 C   0  0  0  0  0
    1.7616    1.4960   -2.6097 C   0  0  0  0  0
    2.8637   -0.5688   -1.7139 C   0  0  0  0  0
   -3.5388   -4.6234   -0.8722 C   0  0  0  0  0
   -2.6141   -2.9067   -3.1325 C   0  0  0  0  0
   -2.8843   -5.1883   -2.1315 C   0  0  0  0  0
   -3.1937   -4.3057   -3.3338 C   0  0  0  0  0
    1.2240    1.4308   -6.2163 C   0  0  0  0  0
    1.6537   -1.0469   -6.2501 C   0  0  0  0  0
    5.6619    1.3732   -3.0520 C   0  0  0  0  0
    5.6453    3.8828   -2.8902 C   0  0  0  0  0
    2.8578    0.4109   -4.5541 C   0  0  0  0  0
    3.6019    2.6714   -3.7893 C   0  0  0  0  0
    1.5785    0.2044   -5.3741 C   0  0  0  0  0
    4.7950    2.6131   -2.8277 C   0  0  0  0  0
    0.8247    2.4707   -2.6034 N   0  0  0  0  0
   -1.1166    1.4463    0.4022 N   0  0  0  0  0
    2.7353    1.5238   -3.6394 N   0  0  0  0  0
    2.6310   -1.6460   -2.3793 O   0  0  0  0  0
    3.9676   -0.3697   -1.0821 O   0  0  0  0  0
   -3.5957    1.7315    1.0556 O   0  0  0  0  0
   -2.9528    2.0087   -1.3546 O   0  0  0  0  0
   -2.7679    1.3324   -0.0764 S   0  0  0  0  0
  1  7  1  0  0  0
  2 10  1  0  0  0
  3  9  1  0  0  0
  4  8  1  0  0  0
  5 25  1  0  0  0
  6 11  1  0  0  0
  6 12  1  0  0  0
  9 26  1  0  0  0
 11 27  1  0  0  0
 12 28  1  0  0  0
 13  7  1  0  0  0
 13 15  1  0  0  0
 14  8  1  0  0  0
 14 16  1  0  0  0
 15 16  1  0  0  0
 17 23  1  0  0  0
 18 23  1  0  0  0
 19 24  1  0  0  0
 20 24  1  0  0  0
 21 23  1  0  0  0
 21 27  1  0  0  0
 22 24  1  0  0  0
 22 27  1  0  0  0
 32 10  1  0  0  0
 32 26  1  0  0  0
  1  2  2  0  0  0
  3  6  2  0  0  0
  4 10  2  0  0  0
  5  9  2  0  0  0
  7  8  2  0  0  0
 11 25  2  0  0  0
 12 29  2  0  0  0
 32 30  2  0  0  0
 32 31  2  0  0  0
M  CHG  1  28  -1
M  END
> <rmsd>
0.515072584

$$$$
ZINC64843304


 32 34  0  0  0  0  0  0  0  0999 V2000
   -3.2700   -2.5865    0.4417 C   0  0  0  0  0
   -2.4307   -2.2488   -1.7986 C   0  0  0  0  0
   -3.2261   -1.2104    0.6656 C   0  0  0  0  0
   -2.3869   -0.8727   -1.5747 C   0  0  0  0  0
    1.0040    0.7936   -0.3288 C   0  0  0  0  0
   -0.0197    2.6926   -1.3300 C   0  0  0  0  0
    2.0447    0.9102   -1.2435 C   0  0  0  0  0
   -2.8723   -3.1057   -0.7904 C   0  0  0  0  0
   -0.0516    1.6977   -0.3661 C   0  0  0  0  0
   -2.7846   -0.3535   -0.3426 C   0  0  0  0  0
    1.9827    1.9402   -2.1682 C   0  0  0  0  0
    3.1618   -0.0489   -1.2019 C   0  0  0  0  0
   -2.5626   -7.0709   -2.6275 C   0  0  0  0  0
   -1.5838   -6.7019   -1.5170 C   0  0  0  0  0
   -3.9504   -6.4916   -2.3698 C   0  0  0  0  0
   -1.5214   -5.1911   -1.2990 C   0  0  0  0  0
   -3.8997   -4.9798   -2.1562 C   0  0  0  0  0
   -2.9176   -4.5991   -1.0330 C   0  0  0  0  0
    2.0174    1.4062   -6.7262 C   0  0  0  0  0
    5.2107    5.2058   -2.9342 C   0  0  0  0  0
    2.1145    2.1302   -5.3909 C   0  0  0  0  0
    3.9977    4.3365   -3.2337 C   0  0  0  0  0
    2.9699    1.3816   -4.3759 C   0  0  0  0  0
    4.1883    2.8888   -2.7971 C   0  0  0  0  0
    0.9739    2.8377   -2.2352 N   0  0  0  0  0
   -1.1425    1.6030    0.5663 N   0  0  0  0  0
    3.0400    2.0654   -3.1039 N   0  0  0  0  0
    3.0774   -1.1275   -1.8997 O   0  0  0  0  0
    4.1843    0.2238   -0.4690 O   0  0  0  0  0
   -3.6854    1.6786    0.9934 O   0  0  0  0  0
   -2.8518    2.0538   -1.3441 O   0  0  0  0  0
   -2.7292    1.3690   -0.0630 S   0  0  0  0  0
  1  8  1  0  0  0
  2  4  1  0  0  0
  3 10  1  0  0  0
  5  9  1  0  0  0
  6 25  1  0  0  0
  7 11  1  0  0  0
  7 12  1  0  0  0
  9 26  1  0  0  0
 11 27  1  0  0  0
 12 28  1  0  0  0
 13 14  1  0  0  0
 13 15  1  0  0  0
 14 16  1  0  0  0
 15 17  1  0  0  0
 16 18  1  0  0  0
 17 18  1  0  0  0
 18  8  1  0  0  0
 19 21  1  0  0  0
 20 22  1  0  0  0
 21 23  1  0  0  0
 22 24  1  0  0  0
 23 27  1  0  0  0
 24 27  1  0  0  0
 32 10  1  0  0  0
 32 26  1  0  0  0
  1  3  2  0  0  0
  2  8  2  0  0  0
  4 10  2  0  0  0
  5  7  2  0  0  0
  6  9  2  0  0  0
 11 25  2  0  0  0
 12 29  2  0  0  0
 32 30  2  0  0  0
 32 31  2  0  0  0
M  CHG  1  28  -1
M  END
> <rmsd>
0.695176601

$$$$
ZINC64843304


 32 34  0  0  0  0  0  0  0  0999 V2000
   -3.5695   -2.5614    0.5525 C   0  0  0  0  0
   -2.9148   -2.3204   -1.7606 C   0  0  0  0  0
   -3.3973   -1.1905    0.7441 C   0  0  0  0  0
   -2.7426   -0.9495   -1.5690 C   0  0  0  0  0
    0.8685    0.4554   -0.6675 C   0  0  0  0  0
   -0.0899    2.4174   -1.6098 C   0  0  0  0  0
    1.8271    0.4766   -1.6745 C   0  0  0  0  0
   -3.3283   -3.1264   -0.6998 C   0  0  0  0  0
   -0.1117    1.4406   -0.6275 C   0  0  0  0  0
   -2.9838   -0.3846   -0.3166 C   0  0  0  0  0
    1.7619    1.4965   -2.6101 C   0  0  0  0  0
    2.8644   -0.5683   -1.7147 C   0  0  0  0  0
   -3.5008   -7.1266   -2.4781 C   0  0  0  0  0
   -2.3985   -6.8231   -1.4680 C   0  0  0  0  0
   -4.8093   -6.4347   -2.1078 C   0  0  0  0  0
   -2.1978   -5.3196   -1.2866 C   0  0  0  0  0
   -4.6205   -4.9293   -1.9298 C   0  0  0  0  0
   -3.5129   -4.6142   -0.9076 C   0  0  0  0  0
    1.3373    0.9037   -7.1412 C   0  0  0  0  0
    5.1531    4.4830   -3.7291 C   0  0  0  0  0
    1.6128    1.6345   -5.8347 C   0  0  0  0  0
    3.8532    3.7100   -3.9006 C   0  0  0  0  0
    2.4960    0.8327   -4.8863 C   0  0  0  0  0
    3.9685    2.2573   -3.4543 C   0  0  0  0  0
    0.8249    2.4710   -2.6038 N   0  0  0  0  0
   -1.1167    1.4455    0.4013 N   0  0  0  0  0
    2.7358    1.5247   -3.6397 N   0  0  0  0  0
    2.6319   -1.6454   -2.3804 O   0  0  0  0  0
    3.9680   -0.3691   -1.0826 O   0  0  0  0  0
   -3.5960    1.7299    1.0544 O   0  0  0  0  0
   -2.9529    2.0075   -1.3557 O   0  0  0  0  0
   -2.7678    1.3314   -0.0776 S   0  0  0  0  0
  1  8  1  0  0  0
  2  4  1  0  0  0
  3 10  1  0  0  0
  5  9  1  0  0  0
  6 25  1  0  0  0
  7 11  1  0  0  0
  7 12  1  0  0  0
  9 26  1  0  0  0
 11 27  1  0  0  0
 12 28  1  0  0  0
 13 14  1  0  0  0
 13 15  1  0  0  0
 14 16  1  0  0  0
 15 17  1  0  0  0
 16 18  1  0  0  0
 17 18  1  0  0  0
 18  8  1  0  0  0
 19 21  1  0  0  0
 20 22  1  0  0  0
 21 23  1  0  0  0
 22 24  1  0  0  0
 23 27  1  0  0  0
 24 27  1  0  0  0
 32 10  1  0  0  0
 32 26  1  0  0  0
  1  3  2  0  0  0
  2  8  2  0  0  0
  4 10  2  0  0  0
  5  7  2  0  0  0
  6  9  2  0  0  0
 11 25  2  0  0  0
 12 29  2  0  0  0
 32 30  2  0  0  0
 32 31  2  0  0  0
M  CHG  1  28  -1
M  END
> <rmsd>
0.513046801

$$$$
ZINC21992923


 33 35  0  0  0  0  0  0  0  0999 V2000
   -5.5391   -2.8660   -8.1164 C   0  0  0  0  0
   -6.5771   -3.1419   -7.2265 C   0  0  0  0  0
   -4.2336   -2.7295   -7.6445 C   0  0  0  0  0
   -6.3095   -3.2813   -5.8646 C   0  0  0  0  0
   -3.9660   -2.8690   -6.2827 C   0  0  0  0  0
   -3.1725   -2.1637    0.6721 C   0  0  0  0  0
   -5.0039   -3.1449   -5.3927 C   0  0  0  0  0
   -4.0756   -3.3279   -1.2378 C   0  0  0  0  0
   -2.9344   -1.0436   -0.1257 C   0  0  0  0  0
   -3.8385   -2.2101   -2.0360 C   0  0  0  0  0
   -3.7440   -3.3103    0.1189 C   0  0  0  0  0
   -3.2667   -1.0653   -1.4805 C   0  0  0  0  0
   -4.9913   -4.4291   -3.2902 C   0  0  0  0  0
   -4.7208   -3.2922   -3.9509 C   0  0  0  0  0
   -4.6783   -4.5218   -1.8498 C   0  0  0  0  0
   -3.2670    1.3781    0.3443 C   0  0  0  0  0
    2.5175   -1.2453   -0.8408 C   0  0  0  0  0
   -4.1632    0.6273   -2.8901 C   0  0  0  0  0
    1.5332   -0.0974   -0.5509 C   0  0  0  0  0
    0.1763   -0.5187    0.0336 C   0  0  0  0  0
   -0.9312    0.5558   -0.1291 C   0  0  0  0  0
   -2.3064    0.1988    0.5044 C   0  0  0  0  0
    3.2845   -1.0960   -1.8314 O   0  0  0  0  0
   -4.9102   -5.5385   -1.2103 O   0  0  0  0  0
   -4.1345    1.6816    1.1582 O   0  0  0  0  0
    2.4330   -2.2174   -0.0346 O   0  0  0  0  0
   -4.1436   -2.1719   -3.3730 O   0  0  0  0  0
   -3.9564   -4.3764    0.9399 O   0  0  0  0  0
    1.3153    0.5665   -1.7941 O   0  0  0  0  0
    0.3548   -0.8369    1.4130 O   0  0  0  0  0
   -0.4760    1.7958    0.4261 O   0  0  0  0  0
   -2.1584    0.0261    1.9131 O   0  0  0  0  0
   -3.0333    0.0306   -2.2583 O   0  0  0  0  0
  1  2  1  0  0  0
  3  5  1  0  0  0
  4  7  1  0  0  0
  6 11  1  0  0  0
  7 14  1  0  0  0
  8 10  1  0  0  0
  8 15  1  0  0  0
  9 12  1  0  0  0
 10 27  1  0  0  0
 11 28  1  0  0  0
 12 33  1  0  0  0
 13 15  1  0  0  0
 14 27  1  0  0  0
 17 23  1  0  0  0
 18 33  1  0  0  0
 19 17  1  0  0  0
 19 20  1  0  0  0
 19 29  1  0  0  0
 20 21  1  0  0  0
 20 30  1  0  0  0
 21 22  1  0  0  0
 21 31  1  0  0  0
 22  9  1  0  0  0
 22 16  1  0  0  0
 22 32  1  0  0  0
  1  3  2  0  0  0
  2  4  2  0  0  0
  5  7  2  0  0  0
  6  9  2  0  0  0
  8 11  2  0  0  0
 10 12  2  0  0  0
 13 14  2  0  0  0
 15 24  2  0  0  0
 16 25  2  0  0  0
 17 26  2  0  0  0
M  CHG  1  23  -1
M  END
> <rmsd>
0.58179903

$$$$
ZINC21992923


 33 35  0  0  0  0  0  0  0  0999 V2000
   -7.8534   -7.6029    2.9249 C   0  0  0  0  0
   -6.7184   -8.1484    2.3253 C   0  0  0  0  0
   -8.2289   -6.2896    2.6419 C   0  0  0  0  0
   -5.9586   -7.3806    1.4427 C   0  0  0  0  0
   -7.4692   -5.5219    1.7593 C   0  0  0  0  0
   -2.7059   -1.5026   -1.5045 C   0  0  0  0  0
   -6.3341   -6.0673    1.1596 C   0  0  0  0  0
   -3.9881   -3.5393   -1.3432 C   0  0  0  0  0
   -2.9805   -1.2258   -0.1644 C   0  0  0  0  0
   -4.2634   -3.2645   -0.0047 C   0  0  0  0  0
   -3.2088   -2.6605   -2.0991 C   0  0  0  0  0
   -3.7596   -2.1060    0.5870 C   0  0  0  0  0
   -5.3401   -5.6250   -1.0509 C   0  0  0  0  0
   -5.5296   -5.2545    0.2255 C   0  0  0  0  0
   -4.5330   -4.7673   -1.9420 C   0  0  0  0  0
   -3.4278    1.1835    0.2738 C   0  0  0  0  0
    2.4861   -1.1924   -0.7892 C   0  0  0  0  0
   -5.3975   -1.6934    2.2613 C   0  0  0  0  0
    1.4473   -0.0865   -0.5276 C   0  0  0  0  0
    0.1008   -0.5617    0.0393 C   0  0  0  0  0
   -1.0504    0.4609   -0.1529 C   0  0  0  0  0
   -2.4188    0.0497    0.4622 C   0  0  0  0  0
    3.2620   -1.0194   -1.7687 O   0  0  0  0  0
   -4.3348   -5.0689   -3.1108 O   0  0  0  0  0
   -3.9508    1.8065    1.1933 O   0  0  0  0  0
    2.4312   -2.1591    0.0261 O   0  0  0  0  0
   -5.0226   -4.0912    0.7841 O   0  0  0  0  0
   -2.9118   -2.8850   -3.4094 O   0  0  0  0  0
    1.2209    0.5544   -1.7814 O   0  0  0  0  0
    0.2701   -0.8577    1.4249 O   0  0  0  0  0
   -0.6598    1.7254    0.3961 O   0  0  0  0  0
   -2.2867   -0.1019    1.8749 O   0  0  0  0  0
   -4.0266   -1.8336    1.8966 O   0  0  0  0  0
  1  2  1  0  0  0
  3  5  1  0  0  0
  4  7  1  0  0  0
  6 11  1  0  0  0
  7 14  1  0  0  0
  8 10  1  0  0  0
  8 15  1  0  0  0
  9 12  1  0  0  0
 10 27  1  0  0  0
 11 28  1  0  0  0
 12 33  1  0  0  0
 13 15  1  0  0  0
 14 27  1  0  0  0
 17 23  1  0  0  0
 18 33  1  0  0  0
 19 17  1  0  0  0
 19 20  1  0  0  0
 19 29  1  0  0  0
 20 21  1  0  0  0
 20 30  1  0  0  0
 21 22  1  0  0  0
 21 31  1  0  0  0
 22  9  1  0  0  0
 22 16  1  0  0  0
 22 32  1  0  0  0
  1  3  2  0  0  0
  2  4  2  0  0  0
  5  7  2  0  0  0
  6  9  2  0  0  0
  8 11  2  0  0  0
 10 12  2  0  0  0
 13 14  2  0  0  0
 15 24  2  0  0  0
 16 25  2  0  0  0
 17 26  2  0  0  0
M  CHG  1  23  -1
M  END
> <rmsd>
0.676009893

$$$$
ZINC64580571


 32 34  0  0  0  0  0  0  0  0999 V2000
   -2.9076   -2.3078   -1.7765 C   0  0  0  0  0
   -3.5409   -2.5652    0.5407 C   0  0  0  0  0
    0.8689    2.5251   -2.5706 C   0  0  0  0  0
   -0.1070    2.5016   -1.5743 C   0  0  0  0  0
   -2.7426   -0.9369   -1.5792 C   0  0  0  0  0
   -3.3760   -1.1942    0.7380 C   0  0  0  0  0
    0.8586    0.4773   -0.6762 C   0  0  0  0  0
    1.8345    0.5007   -1.6725 C   0  0  0  0  0
   -3.3068   -3.1220   -0.7167 C   0  0  0  0  0
    1.8397    1.5246   -2.6198 C   0  0  0  0  0
   -0.1122    1.4777   -0.6270 C   0  0  0  0  0
   -2.9768   -0.3801   -0.3219 C   0  0  0  0  0
    2.8494   -0.5693   -1.7018 C   0  0  0  0  0
    4.0529    2.2965   -3.3460 C   0  0  0  0  0
    2.3962    1.5202   -5.0337 C   0  0  0  0  0
    5.1860    1.7875   -4.2267 C   0  0  0  0  0
    3.5338    1.0174   -5.9134 C   0  0  0  0  0
    7.9527    2.3744   -7.7124 C   0  0  0  0  0
   -2.1569   -5.2572   -1.3979 C   0  0  0  0  0
   -4.5673   -4.8750   -2.0145 C   0  0  0  0  0
   -3.9364   -5.3974    0.3329 C   0  0  0  0  0
    6.8225    2.6781   -6.7422 C   0  0  0  0  0
    5.8833    1.4907   -6.6029 C   0  0  0  0  0
   -3.4853   -4.5874   -0.9277 C   0  0  0  0  0
    2.8100    1.5661   -3.6276 N   0  0  0  0  0
   -1.1113    1.4541    0.3925 N   0  0  0  0  0
    4.7619    1.8568   -5.6718 N   0  0  0  0  0
    2.6049   -1.6325   -2.3833 O   0  0  0  0  0
    3.9423   -0.4006   -1.0447 O   0  0  0  0  0
   -3.5971    1.7229    1.0632 O   0  0  0  0  0
   -2.9651    2.0179   -1.3478 O   0  0  0  0  0
   -2.7680    1.3594   -0.0708 S   0  0  0  0  0
  1  9  1  0  0  0
  2  6  1  0  0  0
  3 10  1  0  0  0
  4 11  1  0  0  0
  5 12  1  0  0  0
  7  8  1  0  0  0
  8 13  1  0  0  0
 10 25  1  0  0  0
 11 26  1  0  0  0
 13 28  1  0  0  0
 14 16  1  0  0  0
 14 25  1  0  0  0
 15 17  1  0  0  0
 15 25  1  0  0  0
 16 27  1  0  0  0
 17 27  1  0  0  0
 18 22  1  0  0  0
 19 24  1  0  0  0
 20 24  1  0  0  0
 21 24  1  0  0  0
 22 23  1  0  0  0
 23 27  1  0  0  0
 24  9  1  0  0  0
 32 12  1  0  0  0
 32 26  1  0  0  0
  1  5  2  0  0  0
  2  9  2  0  0  0
  3  4  2  0  0  0
  6 12  2  0  0  0
  7 11  2  0  0  0
  8 10  2  0  0  0
 13 29  2  0  0  0
 32 30  2  0  0  0
 32 31  2  0  0  0
M  CHG  2  27   1  28  -1
M  END
> <rmsd>
0.525643528

$$$$
ZINC64580571


 32 34  0  0  0  0  0  0  0  0999 V2000
   -2.4220   -2.2391   -1.8095 C   0  0  0  0  0
   -3.2459   -2.5876    0.4347 C   0  0  0  0  0
    1.0211    2.8843   -2.1899 C   0  0  0  0  0
   -0.0383    2.7671   -1.2903 C   0  0  0  0  0
   -2.3841   -0.8635   -1.5821 C   0  0  0  0  0
   -3.2081   -1.2119    0.6622 C   0  0  0  0  0
    0.9954    0.8069   -0.3281 C   0  0  0  0  0
    2.0549    0.9240   -1.2279 C   0  0  0  0  0
   -2.8529   -3.1012   -0.8013 C   0  0  0  0  0
    2.0677    1.9627   -2.1588 C   0  0  0  0  0
   -0.0512    1.7285   -0.3593 C   0  0  0  0  0
   -2.7772   -0.3499   -0.3462 C   0  0  0  0  0
    3.1489   -0.0639   -1.1736 C   0  0  0  0  0
    4.2714    2.9162   -2.6647 C   0  0  0  0  0
    2.8449    2.0461   -4.5095 C   0  0  0  0  0
    5.5179    2.5125   -3.4405 C   0  0  0  0  0
    4.0952    1.6489   -5.2838 C   0  0  0  0  0
    8.5421    3.3756   -6.6434 C   0  0  0  0  0
   -1.4807   -5.1285   -1.3953 C   0  0  0  0  0
   -3.8459   -4.9217   -2.2317 C   0  0  0  0  0
   -3.3968   -5.4376    0.1586 C   0  0  0  0  0
    7.3063    3.5732   -5.7806 C   0  0  0  0  0
    6.4542    2.3146   -5.7437 C   0  0  0  0  0
   -2.8955   -4.5719   -1.0447 C   0  0  0  0  0
    3.1213    2.0976   -3.0703 N   0  0  0  0  0
   -1.1359    1.6090    0.5613 N   0  0  0  0  0
    5.2259    2.5758   -4.9183 N   0  0  0  0  0
    3.0530   -1.1300   -1.8870 O   0  0  0  0  0
    4.1594    0.1763   -0.4146 O   0  0  0  0  0
   -3.6867    1.6729    0.9980 O   0  0  0  0  0
   -2.8583    2.0606   -1.3393 O   0  0  0  0  0
   -2.7297    1.3956   -0.0570 S   0  0  0  0  0
  1  9  1  0  0  0
  2  6  1  0  0  0
  3 10  1  0  0  0
  4 11  1  0  0  0
  5 12  1  0  0  0
  7  8  1  0  0  0
  8 13  1  0  0  0
 10 25  1  0  0  0
 11 26  1  0  0  0
 13 28  1  0  0  0
 14 16  1  0  0  0
 14 25  1  0  0  0
 15 17  1  0  0  0
 15 25  1  0  0  0
 16 27  1  0  0  0
 17 27  1  0  0  0
 18 22  1  0  0  0
 19 24  1  0  0  0
 20 24  1  0  0  0
 21 24  1  0  0  0
 22 23  1  0  0  0
 23 27  1  0  0  0
 24  9  1  0  0  0
 32 12  1  0  0  0
 32 26  1  0  0  0
  1  5  2  0  0  0
  2  9  2  0  0  0
  3  4  2  0  0  0
  6 12  2  0  0  0
  7 11  2  0  0  0
  8 10  2  0  0  0
 13 29  2  0  0  0
 32 30  2  0  0  0
 32 31  2  0  0  0
M  CHG  2  27   1  28  -1
M  END
> <rmsd>
0.706494153

$$$$
ZINC32961605


 32 34  0  0  0  0  0  0  0  0999 V2000
   -2.8514   -3.1014   -0.8261 C   0  0  0  0  0
   -2.7223   -2.6313    0.4807 C   0  0  0  0  0
    1.0104    2.8743   -2.2076 C   0  0  0  0  0
   -0.0463    2.7606   -1.3041 C   0  0  0  0  0
    0.9947    0.8088   -0.3323 C   0  0  0  0  0
   -2.9042   -0.8269   -1.6392 C   0  0  0  0  0
    2.0513    0.9226   -1.2359 C   0  0  0  0  0
   -2.9423   -2.1993   -1.8861 C   0  0  0  0  0
   -2.6841   -1.2589    0.7276 C   0  0  0  0  0
    2.0591    1.9553   -2.1735 C   0  0  0  0  0
   -0.0541    1.7278   -0.3665 C   0  0  0  0  0
   -2.7751   -0.3567   -0.3323 C   0  0  0  0  0
    3.1479   -0.0624   -1.1784 C   0  0  0  0  0
    6.0007    3.2171   -5.8154 C   0  0  0  0  0
    4.2619    2.9122   -2.6916 C   0  0  0  0  0
    2.8294    2.0248   -4.5298 C   0  0  0  0  0
    5.5017    2.5100   -3.4869 C   0  0  0  0  0
    4.0906    1.6395   -5.3021 C   0  0  0  0  0
   -3.0808   -2.7026   -3.2834 C   0  0  0  0  0
   -2.5457   -0.7887    2.1387 C   0  0  0  0  0
    5.7358    3.5339   -9.4631 C   0  0  0  0  0
    6.3349    3.7963   -8.0978 C   0  0  0  0  0
    3.1096    2.0869   -3.0887 N   0  0  0  0  0
    5.2149    2.4927   -4.9175 N   0  0  0  0  0
   -1.1359    1.6117    0.5580 N   0  0  0  0  0
    3.0524   -1.1333   -1.8846 O   0  0  0  0  0
    4.1600    0.1850   -0.4239 O   0  0  0  0  0
    6.9659    3.9066   -5.4914 O   0  0  0  0  0
   -3.6856    1.6726    1.0015 O   0  0  0  0  0
   -2.8648    2.0470   -1.3406 O   0  0  0  0  0
    5.5807    3.0815   -7.1121 O   0  0  0  0  0
   -2.7309    1.3906   -0.0543 S   0  0  0  0  0
  1  8  1  0  0  0
  2  9  1  0  0  0
  3 10  1  0  0  0
  4 11  1  0  0  0
  5  7  1  0  0  0
  6 12  1  0  0  0
  7 13  1  0  0  0
 10 23  1  0  0  0
 11 25  1  0  0  0
 13 26  1  0  0  0
 14 24  1  0  0  0
 14 31  1  0  0  0
 15 17  1  0  0  0
 15 23  1  0  0  0
 16 18  1  0  0  0
 16 23  1  0  0  0
 17 24  1  0  0  0
 18 24  1  0  0  0
 19  8  1  0  0  0
 20  9  1  0  0  0
 21 22  1  0  0  0
 22 31  1  0  0  0
 32 12  1  0  0  0
 32 25  1  0  0  0
  1  2  2  0  0  0
  3  4  2  0  0  0
  5 11  2  0  0  0
  6  8  2  0  0  0
  7 10  2  0  0  0
  9 12  2  0  0  0
 13 27  2  0  0  0
 14 28  2  0  0  0
 32 29  2  0  0  0
 32 30  2  0  0  0
M  CHG  1  26  -1
M  END
> <rmsd>
0.709085286

$$$$
ZINC32961605


 32 34  0  0  0  0  0  0  0  0999 V2000
   -3.3090   -3.1231   -0.7394 C   0  0  0  0  0
   -3.0224   -2.6492    0.5407 C   0  0  0  0  0
    0.8589    2.5118   -2.5852 C   0  0  0  0  0
   -0.1144    2.4927   -1.5861 C   0  0  0  0  0
    0.8582    0.4764   -0.6773 C   0  0  0  0  0
   -3.2609   -0.8613   -1.5876 C   0  0  0  0  0
    1.8314    0.4955   -1.6764 C   0  0  0  0  0
   -3.4283   -2.2292   -1.8036 C   0  0  0  0  0
   -2.8549   -1.2813    0.7566 C   0  0  0  0  0
    1.8317    1.5133   -2.6303 C   0  0  0  0  0
   -0.1147    1.4749   -0.6323 C   0  0  0  0  0
   -2.9742   -0.3874   -0.3075 C   0  0  0  0  0
    2.8488   -0.5723   -1.7014 C   0  0  0  0  0
    5.5019    2.4162   -6.6436 C   0  0  0  0  0
    4.0441    2.2868   -3.3676 C   0  0  0  0  0
    2.3817    1.4936   -5.0485 C   0  0  0  0  0
    5.1692    1.7783   -4.2659 C   0  0  0  0  0
    3.5315    1.0007   -5.9263 C   0  0  0  0  0
   -3.7353   -2.7366   -3.1723 C   0  0  0  0  0
   -2.5492   -0.8069    2.1397 C   0  0  0  0  0
    4.9230    2.7097  -10.2567 C   0  0  0  0  0
    5.6655    2.9401   -8.9578 C   0  0  0  0  0
    2.7992    1.5505   -3.6408 N   0  0  0  0  0
    4.7496    1.7669   -5.6634 N   0  0  0  0  0
   -1.1112    1.4557    0.3902 N   0  0  0  0  0
    2.6049   -1.6406   -2.3752 O   0  0  0  0  0
    3.9430   -0.3968   -1.0483 O   0  0  0  0  0
    6.5438    3.0310   -6.4232 O   0  0  0  0  0
   -3.5958    1.7232    1.0655 O   0  0  0  0  0
   -2.9708    2.0038   -1.3490 O   0  0  0  0  0
    4.9534    2.2989   -7.8932 O   0  0  0  0  0
   -2.7687    1.3542   -0.0682 S   0  0  0  0  0
  1  8  1  0  0  0
  2  9  1  0  0  0
  3 10  1  0  0  0
  4 11  1  0  0  0
  5  7  1  0  0  0
  6 12  1  0  0  0
  7 13  1  0  0  0
 10 23  1  0  0  0
 11 25  1  0  0  0
 13 26  1  0  0  0
 14 24  1  0  0  0
 14 31  1  0  0  0
 15 17  1  0  0  0
 15 23  1  0  0  0
 16 18  1  0  0  0
 16 23  1  0  0  0
 17 24  1  0  0  0
 18 24  1  0  0  0
 19  8  1  0  0  0
 20  9  1  0  0  0
 21 22  1  0  0  0
 22 31  1  0  0  0
 32 12  1  0  0  0
 32 25  1  0  0  0
  1  2  2  0  0  0
  3  4  2  0  0  0
  5 11  2  0  0  0
  6  8  2  0  0  0
  7 10  2  0  0  0
  9 12  2  0  0  0
 13 27  2  0  0  0
 14 28  2  0  0  0
 32 29  2  0  0  0
 32 30  2  0  0  0
M  CHG  1  26  -1
M  END
> <rmsd>
0.527499974

$$$$
ZINC32961611


 32 34  0  0  0  0  0  0  0  0999 V2000
   -2.9409   -2.1988   -1.8861 C   0  0  0  0  0
    1.0090    2.8740   -2.2080 C   0  0  0  0  0
   -0.0476    2.7605   -1.3043 C   0  0  0  0  0
   -2.9042   -0.8265   -1.6388 C   0  0  0  0  0
    0.9935    0.8089   -0.3323 C   0  0  0  0  0
   -2.7221   -2.6313    0.4808 C   0  0  0  0  0
    2.0500    0.9225   -1.2360 C   0  0  0  0  0
   -2.8499   -3.1012   -0.8263 C   0  0  0  0  0
   -2.6853   -1.2590    0.7281 C   0  0  0  0  0
    2.0577    1.9550   -2.1738 C   0  0  0  0  0
   -0.0553    1.7279   -0.3666 C   0  0  0  0  0
   -2.7763   -0.3566   -0.3316 C   0  0  0  0  0
    3.1466   -0.0625   -1.1785 C   0  0  0  0  0
    5.9989    3.2160   -5.8164 C   0  0  0  0  0
    4.2605    2.9118   -2.6924 C   0  0  0  0  0
    2.8278    2.0240   -4.5302 C   0  0  0  0  0
    5.5002    2.5093   -3.4877 C   0  0  0  0  0
    4.0889    1.6385   -5.3026 C   0  0  0  0  0
   -2.8888   -4.5686   -1.0915 C   0  0  0  0  0
   -2.5476   -0.7887    2.1392 C   0  0  0  0  0
    5.7337    3.5321   -9.4641 C   0  0  0  0  0
    6.3329    3.7948   -8.0990 C   0  0  0  0  0
    3.1082    2.0864   -3.0891 N   0  0  0  0  0
    5.2132    2.4918   -4.9183 N   0  0  0  0  0
   -1.1370    1.6119    0.5581 N   0  0  0  0  0
    3.0510   -1.1335   -1.8845 O   0  0  0  0  0
    4.1588    0.1850   -0.4241 O   0  0  0  0  0
    6.9642    3.9055   -5.4926 O   0  0  0  0  0
   -3.6866    1.6730    1.0019 O   0  0  0  0  0
   -2.8660    2.0470   -1.3404 O   0  0  0  0  0
    5.5788    3.0802   -7.1130 O   0  0  0  0  0
   -2.7320    1.3908   -0.0540 S   0  0  0  0  0
  1  8  1  0  0  0
  2 10  1  0  0  0
  3 11  1  0  0  0
  4 12  1  0  0  0
  5  7  1  0  0  0
  6  9  1  0  0  0
  7 13  1  0  0  0
 10 23  1  0  0  0
 11 25  1  0  0  0
 13 26  1  0  0  0
 14 24  1  0  0  0
 14 31  1  0  0  0
 15 17  1  0  0  0
 15 23  1  0  0  0
 16 18  1  0  0  0
 16 23  1  0  0  0
 17 24  1  0  0  0
 18 24  1  0  0  0
 19  8  1  0  0  0
 20  9  1  0  0  0
 21 22  1  0  0  0
 22 31  1  0  0  0
 32 12  1  0  0  0
 32 25  1  0  0  0
  1  4  2  0  0  0
  2  3  2  0  0  0
  5 11  2  0  0  0
  6  8  2  0  0  0
  7 10  2  0  0  0
  9 12  2  0  0  0
 13 27  2  0  0  0
 14 28  2  0  0  0
 32 29  2  0  0  0
 32 30  2  0  0  0
M  CHG  1  26  -1
M  END
> <rmsd>
0.709949613

$$$$
ZINC32961611


 32 34  0  0  0  0  0  0  0  0999 V2000
   -3.4269   -2.2289   -1.8037 C   0  0  0  0  0
    0.8575    2.5115   -2.5855 C   0  0  0  0  0
   -0.1157    2.4926   -1.5863 C   0  0  0  0  0
   -3.2608   -0.8610   -1.5872 C   0  0  0  0  0
    0.8570    0.4765   -0.6771 C   0  0  0  0  0
   -3.0222   -2.6493    0.5408 C   0  0  0  0  0
    1.8301    0.4954   -1.6764 C   0  0  0  0  0
   -3.3077   -3.1230   -0.7396 C   0  0  0  0  0
   -2.8561   -1.2813    0.7574 C   0  0  0  0  0
    1.8303    1.5129   -2.6305 C   0  0  0  0  0
   -0.1159    1.4750   -0.6322 C   0  0  0  0  0
   -2.9754   -0.3872   -0.3066 C   0  0  0  0  0
    2.8475   -0.5725   -1.7012 C   0  0  0  0  0
    5.5001    2.4149   -6.6444 C   0  0  0  0  0
    4.0427    2.2862   -3.3681 C   0  0  0  0  0
    2.3800    1.4927   -5.0487 C   0  0  0  0  0
    5.1676    1.7776   -4.2665 C   0  0  0  0  0
    3.5297    0.9996   -5.9265 C   0  0  0  0  0
   -3.4849   -4.5858   -0.9719 C   0  0  0  0  0
   -2.5511   -0.8066    2.1405 C   0  0  0  0  0
    4.9207    2.7075  -10.2575 C   0  0  0  0  0
    5.6634    2.9383   -8.9587 C   0  0  0  0  0
    2.7977    1.5499   -3.6411 N   0  0  0  0  0
    4.7478    1.7658   -5.6640 N   0  0  0  0  0
   -1.1122    1.4560    0.3903 N   0  0  0  0  0
    2.6035   -1.6409   -2.3747 O   0  0  0  0  0
    3.9418   -0.3968   -1.0483 O   0  0  0  0  0
    6.5420    3.0297   -6.4242 O   0  0  0  0  0
   -3.5968    1.7237    1.0659 O   0  0  0  0  0
   -2.9720    2.0038   -1.3487 O   0  0  0  0  0
    4.9514    2.2973   -7.8939 O   0  0  0  0  0
   -2.7698    1.3544   -0.0678 S   0  0  0  0  0
  1  8  1  0  0  0
  2 10  1  0  0  0
  3 11  1  0  0  0
  4 12  1  0  0  0
  5  7  1  0  0  0
  6  9  1  0  0  0
  7 13  1  0  0  0
 10 23  1  0  0  0
 11 25  1  0  0  0
 13 26  1  0  0  0
 14 24  1  0  0  0
 14 31  1  0  0  0
 15 17  1  0  0  0
 15 23  1  0  0  0
 16 18  1  0  0  0
 16 23  1  0  0  0
 17 24  1  0  0  0
 18 24  1  0  0  0
 19  8  1  0  0  0
 20  9  1  0  0  0
 21 22  1  0  0  0
 22 31  1  0  0  0
 32 12  1  0  0  0
 32 25  1  0  0  0
  1  4  2  0  0  0
  2  3  2  0  0  0
  5 11  2  0  0  0
  6  8  2  0  0  0
  7 10  2  0  0  0
  9 12  2  0  0  0
 13 27  2  0  0  0
 14 28  2  0  0  0
 32 29  2  0  0  0
 32 30  2  0  0  0
M  CHG  1  26  -1
M  END
> <rmsd>
0.5282529

$$$$
ZINC64843365


 32 33  0  0  0  0  0  0  0  0999 V2000
   -2.9172   -2.3225   -1.7550 C   0  0  0  0  0
   -3.5711   -2.5597    0.5587 C   0  0  0  0  0
   -2.7437   -0.9516   -1.5654 C   0  0  0  0  0
   -3.3976   -1.1886    0.7482 C   0  0  0  0  0
    0.8681    0.4570   -0.6597 C   0  0  0  0  0
   -0.0603    2.4525   -1.5610 C   0  0  0  0  0
    1.8379    0.4946   -1.6555 C   0  0  0  0  0
   -3.3309   -3.1265   -0.6929 C   0  0  0  0  0
   -0.1026    1.4508   -0.6046 C   0  0  0  0  0
   -2.9839   -0.3846   -0.3138 C   0  0  0  0  0
    1.7932    1.5389   -2.5649 C   0  0  0  0  0
    2.8651   -0.5595   -1.7117 C   0  0  0  0  0
    5.6925    1.3870   -2.9474 C   0  0  0  0  0
    5.7178    3.8895   -2.6993 C   0  0  0  0  0
    1.3216    1.5721   -6.1815 C   0  0  0  0  0
    1.8129   -0.8907   -6.3142 C   0  0  0  0  0
   -2.1913   -5.2747   -1.3507 C   0  0  0  0  0
   -4.5938   -4.8791   -1.9893 C   0  0  0  0  0
   -3.9858   -5.3904    0.3666 C   0  0  0  0  0
    3.6640    2.7462   -3.6616 C   0  0  0  0  0
    2.9311    0.5153   -4.5189 C   0  0  0  0  0
    4.8449    2.6338   -2.6898 C   0  0  0  0  0
    1.6815    0.3170   -5.3853 C   0  0  0  0  0
   -3.5186   -4.5920   -0.8957 C   0  0  0  0  0
    0.8658    2.5224   -2.5432 N   0  0  0  0  0
   -1.1096    1.4394    0.4038 N   0  0  0  0  0
    2.7547    1.5828   -3.5583 N   0  0  0  0  0
    2.6294   -1.6166   -2.4077 O   0  0  0  0  0
    3.9637   -0.3881   -1.0629 O   0  0  0  0  0
   -3.6012    1.7325    1.0511 O   0  0  0  0  0
   -2.9447    2.0062   -1.3559 O   0  0  0  0  0
   -2.7643    1.3550   -0.0726 S   0  0  0  0  0
  1  8  1  0  0  0
  2  4  1  0  0  0
  3 10  1  0  0  0
  5  9  1  0  0  0
  6 25  1  0  0  0
  7 11  1  0  0  0
  7 12  1  0  0  0
  9 26  1  0  0  0
 11 27  1  0  0  0
 12 28  1  0  0  0
 13 22  1  0  0  0
 14 22  1  0  0  0
 15 23  1  0  0  0
 16 23  1  0  0  0
 17 24  1  0  0  0
 18 24  1  0  0  0
 19 24  1  0  0  0
 20 22  1  0  0  0
 20 27  1  0  0  0
 21 23  1  0  0  0
 21 27  1  0  0  0
 24  8  1  0  0  0
 32 10  1  0  0  0
 32 26  1  0  0  0
  1  3  2  0  0  0
  2  8  2  0  0  0
  4 10  2  0  0  0
  5  7  2  0  0  0
  6  9  2  0  0  0
 11 25  2  0  0  0
 12 29  2  0  0  0
 32 30  2  0  0  0
 32 31  2  0  0  0
M  CHG  1  28  -1
M  END
> <rmsd>
0.509895384

$$$$
ZINC64843365


 32 33  0  0  0  0  0  0  0  0999 V2000
   -2.4345   -2.2563   -1.7866 C   0  0  0  0  0
   -3.2805   -2.5842    0.4526 C   0  0  0  0  0
   -2.3867   -0.8797   -1.5669 C   0  0  0  0  0
   -3.2327   -1.2076    0.6722 C   0  0  0  0  0
    1.0044    0.7847   -0.3100 C   0  0  0  0  0
    0.0113    2.7191   -1.2734 C   0  0  0  0  0
    2.0567    0.9142   -1.2096 C   0  0  0  0  0
   -2.8815   -3.1085   -0.7768 C   0  0  0  0  0
   -0.0417    1.7001   -0.3360 C   0  0  0  0  0
   -2.7858   -0.3553   -0.3375 C   0  0  0  0  0
    2.0157    1.9681   -2.1080 C   0  0  0  0  0
    3.1637   -0.0570   -1.1800 C   0  0  0  0  0
    5.9336    2.1220   -2.1231 C   0  0  0  0  0
    5.7408    4.6142   -1.8470 C   0  0  0  0  0
    1.8816    2.0300   -5.7524 C   0  0  0  0  0
    2.5734   -0.3852   -5.8645 C   0  0  0  0  0
   -1.5218   -5.1511   -1.3472 C   0  0  0  0  0
   -3.8779   -4.9291   -2.2050 C   0  0  0  0  0
   -3.4538   -5.4344    0.1921 C   0  0  0  0  0
    3.8808    3.3345   -3.0106 C   0  0  0  0  0
    3.4068    1.0698   -3.9569 C   0  0  0  0  0
    4.9713    3.2954   -1.9332 C   0  0  0  0  0
    2.2625    0.7920   -4.9393 C   0  0  0  0  0
   -2.9348   -4.5802   -1.0120 C   0  0  0  0  0
    1.0166    2.8772   -2.1632 N   0  0  0  0  0
   -1.1342    1.5936    0.5729 N   0  0  0  0  0
    3.0592    2.1033   -3.0059 N   0  0  0  0  0
    3.0768   -1.1164   -1.9063 O   0  0  0  0  0
    4.1805    0.1863   -0.4288 O   0  0  0  0  0
   -3.6905    1.6835    0.9857 O   0  0  0  0  0
   -2.8360    2.0498   -1.3457 O   0  0  0  0  0
   -2.7258    1.3914   -0.0581 S   0  0  0  0  0
  1  8  1  0  0  0
  2  4  1  0  0  0
  3 10  1  0  0  0
  5  9  1  0  0  0
  6 25  1  0  0  0
  7 11  1  0  0  0
  7 12  1  0  0  0
  9 26  1  0  0  0
 11 27  1  0  0  0
 12 28  1  0  0  0
 13 22  1  0  0  0
 14 22  1  0  0  0
 15 23  1  0  0  0
 16 23  1  0  0  0
 17 24  1  0  0  0
 18 24  1  0  0  0
 19 24  1  0  0  0
 20 22  1  0  0  0
 20 27  1  0  0  0
 21 23  1  0  0  0
 21 27  1  0  0  0
 24  8  1  0  0  0
 32 10  1  0  0  0
 32 26  1  0  0  0
  1  3  2  0  0  0
  2  8  2  0  0  0
  4 10  2  0  0  0
  5  7  2  0  0  0
  6  9  2  0  0  0
 11 25  2  0  0  0
 12 29  2  0  0  0
 32 30  2  0  0  0
 32 31  2  0  0  0
M  CHG  1  28  -1
M  END
> <rmsd>
0.688769281

$$$$
ZINC08666884


 32 34  0  0  0  0  0  0  0  0999 V2000
   -2.9130   -2.3095   -1.7745 C   0  0  0  0  0
   -2.7458   -0.9389   -1.5774 C   0  0  0  0  0
    1.8174    1.4704   -2.6485 C   0  0  0  0  0
   -0.1302    2.4583   -1.6154 C   0  0  0  0  0
    0.8585    0.4661   -0.6714 C   0  0  0  0  0
   -3.3843   -1.1942    0.7388 C   0  0  0  0  0
    0.8387    2.4637   -2.6188 C   0  0  0  0  0
    1.8273    0.4715   -1.6749 C   0  0  0  0  0
   -3.3159   -3.1226   -0.7151 C   0  0  0  0  0
   -0.1203    1.4595   -0.6416 C   0  0  0  0  0
   -3.5515   -2.5649    0.5415 C   0  0  0  0  0
   -2.9815   -0.3812   -0.3207 C   0  0  0  0  0
    0.8284    3.5177   -3.6462 C   0  0  0  0  0
    2.8603   -0.5769   -1.7065 C   0  0  0  0  0
   -4.8877   -6.3877   -1.6376 C   0  0  0  0  0
   -2.7437   -6.7879   -0.4124 C   0  0  0  0  0
   -4.4459   -4.9554   -1.9378 C   0  0  0  0  0
   -2.3060   -5.3571   -0.7211 C   0  0  0  0  0
   -3.6889   -7.3297   -1.4898 C   0  0  0  0  0
   -4.1477   -8.7453   -1.1487 C   0  0  0  0  0
   -3.4757   -4.4953   -0.9388 N   0  0  0  0  0
   -1.1186    1.4546    0.3936 N   0  0  0  0  0
   -3.9625   -3.3716    1.6396 N   0  0  0  0  0
   -0.0863    4.4228   -3.5963 O   0  0  0  0  0
    2.8471   -1.4872   -0.7957 O   0  0  0  0  0
   -5.1877   -3.5481    1.8352 O   0  0  0  0  0
    1.7342    3.4996   -4.5615 O   0  0  0  0  0
    3.7430   -0.5487   -2.6437 O   0  0  0  0  0
   -3.0867   -3.8809    2.3772 O   0  0  0  0  0
   -3.5950    1.7240    1.0641 O   0  0  0  0  0
   -2.9689    2.0158   -1.3488 O   0  0  0  0  0
   -2.7722    1.3346   -0.0750 S   0  0  0  0  0
  1  9  1  0  0  0
  2 12  1  0  0  0
  3  7  1  0  0  0
  4 10  1  0  0  0
  5  8  1  0  0  0
  6 11  1  0  0  0
  7 13  1  0  0  0
  8 14  1  0  0  0
  9 21  1  0  0  0
 10 22  1  0  0  0
 11 23  1  0  0  0
 13 24  1  0  0  0
 14 25  1  0  0  0
 15 17  1  0  0  0
 15 19  1  0  0  0
 16 18  1  0  0  0
 16 19  1  0  0  0
 17 21  1  0  0  0
 18 21  1  0  0  0
 19 20  1  0  0  0
 23 26  1  0  0  0
 32 12  1  0  0  0
 32 22  1  0  0  0
  1  2  2  0  0  0
  3  8  2  0  0  0
  4  7  2  0  0  0
  5 10  2  0  0  0
  6 12  2  0  0  0
  9 11  2  0  0  0
 13 27  2  0  0  0
 14 28  2  0  0  0
 23 29  2  0  0  0
 32 30  2  0  0  0
 32 31  2  0  0  0
M  CHG  4  23   1  24  -1  25  -1  26  -1
M  END
> <rmsd>
0.520308852

$$$$
ZINC59121543


 33 36  0  0  0  0  0  0  0  0999 V2000
   -4.4053   -2.1284    0.9955 C   0  0  0  0  0
   -1.9919   -2.2314   -6.2575 C   0  0  0  0  0
   -2.2425   -3.1426   -5.2291 C   0  0  0  0  0
   -3.1157   -2.3351    0.5055 C   0  0  0  0  0
   -5.3319   -1.4106    0.2394 C   0  0  0  0  0
    2.6027    0.5188    1.5408 C   0  0  0  0  0
   -2.1899   -0.8578   -6.0684 C   0  0  0  0  0
   -2.6987   -2.7169   -3.9772 C   0  0  0  0  0
   -2.7529   -1.8240   -0.7406 C   0  0  0  0  0
   -4.9691   -0.8995   -1.0066 C   0  0  0  0  0
    1.2876    0.9830    1.5202 C   0  0  0  0  0
    3.1952    0.0496    0.3684 C   0  0  0  0  0
    1.1572    0.5088   -0.8451 C   0  0  0  0  0
   -2.6481   -0.4124   -4.8171 C   0  0  0  0  0
   -2.8889   -1.3446   -3.8117 C   0  0  0  0  0
   -3.6795   -1.1061   -1.4966 C   0  0  0  0  0
    0.5648    0.9780    0.3273 C   0  0  0  0  0
    2.4724    0.0446   -0.8246 C   0  0  0  0  0
   -3.3168    0.7171   -3.1329 C   0  0  0  0  0
   -2.6666    1.8976   -0.7685 C   0  0  0  0  0
   -3.3882    2.4020    0.4314 C   0  0  0  0  0
   -3.3399    5.8114    1.7086 C   0  0  0  0  0
   -3.7130    4.3443    1.7032 C   0  0  0  0  0
   -2.9193    0.8629   -4.3770 N   0  0  0  0  0
   -1.4604    1.4526   -0.8414 N   0  0  0  0  0
   -3.3155   -0.5941   -2.7461 N   0  0  0  0  0
   -0.7587    1.4450    0.3066 N   0  0  0  0  0
    3.0762   -0.4351   -2.0172 N   0  0  0  0  0
    4.2597   -0.8492   -1.9752 O   0  0  0  0  0
   -4.0393    1.6628    1.1442 O   0  0  0  0  0
    2.4093   -0.4317   -3.0800 O   0  0  0  0  0
   -3.1307    3.7197    0.5561 O   0  0  0  0  0
   -3.7960    2.0155   -2.0893 S   0  0  0  0  0
  1  4  1  0  0  0
  2  3  1  0  0  0
  5 10  1  0  0  0
  6 12  1  0  0  0
  7 14  1  0  0  0
  8 15  1  0  0  0
  9 16  1  0  0  0
 11 17  1  0  0  0
 13 18  1  0  0  0
 14 24  1  0  0  0
 15 26  1  0  0  0
 16 26  1  0  0  0
 17 27  1  0  0  0
 18 28  1  0  0  0
 19 26  1  0  0  0
 19 33  1  0  0  0
 20 21  1  0  0  0
 20 33  1  0  0  0
 21 32  1  0  0  0
 22 23  1  0  0  0
 23 32  1  0  0  0
 27 25  1  0  0  0
 28 29  1  0  0  0
  1  5  2  0  0  0
  2  7  2  0  0  0
  3  8  2  0  0  0
  4  9  2  0  0  0
  6 11  2  0  0  0
 10 16  2  0  0  0
 12 18  2  0  0  0
 13 17  2  0  0  0
 14 15  2  0  0  0
 19 24  2  0  0  0
 20 25  2  0  0  0
 21 30  2  0  0  0
 28 31  2  0  0  0
M  CHG  2  28   1  29  -1
M  END
> <rmsd>
0.379038543

$$$$
ZINC15799182


 32 34  0  0  0  0  0  0  0  0999 V2000
   -2.9131   -2.3089   -1.7756 C   0  0  0  0  0
   -2.7458   -0.9383   -1.5781 C   0  0  0  0  0
    1.8177    1.4709   -2.6487 C   0  0  0  0  0
   -0.1298    2.4587   -1.6153 C   0  0  0  0  0
    0.8586    0.4662   -0.6720 C   0  0  0  0  0
   -3.3843   -1.1941    0.7379 C   0  0  0  0  0
    0.8390    2.4642   -2.6188 C   0  0  0  0  0
    1.8275    0.4717   -1.6754 C   0  0  0  0  0
   -3.3161   -3.1221   -0.7164 C   0  0  0  0  0
   -0.1201    1.4596   -0.6419 C   0  0  0  0  0
   -3.5516   -2.5647    0.5404 C   0  0  0  0  0
   -2.9814   -0.3809   -0.3213 C   0  0  0  0  0
    0.8288    3.5184   -3.6460 C   0  0  0  0  0
    2.8603   -0.5767   -1.7073 C   0  0  0  0  0
   -2.3083   -5.3595   -0.7272 C   0  0  0  0  0
   -4.4446   -4.9571   -1.9395 C   0  0  0  0  0
   -2.7450   -6.7888   -0.4356 C   0  0  0  0  0
   -4.8745   -6.3896   -1.6494 C   0  0  0  0  0
   -4.0164   -8.7156   -1.3797 C   0  0  0  0  0
   -3.4760   -4.4945   -0.9404 N   0  0  0  0  0
   -1.1183    1.4546    0.3934 N   0  0  0  0  0
   -3.9628   -3.3716    1.6383 N   0  0  0  0  0
   -3.6534   -7.2662   -1.5401 N   0  0  0  0  0
   -0.0858    4.4237   -3.5957 O   0  0  0  0  0
    2.8470   -1.4873   -0.7967 O   0  0  0  0  0
   -5.1880   -3.5481    1.8338 O   0  0  0  0  0
    1.7346    3.5006   -4.5612 O   0  0  0  0  0
    3.7431   -0.5485   -2.6445 O   0  0  0  0  0
   -3.0869   -3.8812    2.3757 O   0  0  0  0  0
   -3.5946    1.7240    1.0640 O   0  0  0  0  0
   -2.9686    2.0164   -1.3488 O   0  0  0  0  0
   -2.7720    1.3348   -0.0752 S   0  0  0  0  0
  1  9  1  0  0  0
  2 12  1  0  0  0
  3  7  1  0  0  0
  4 10  1  0  0  0
  5  8  1  0  0  0
  6 11  1  0  0  0
  7 13  1  0  0  0
  8 14  1  0  0  0
  9 20  1  0  0  0
 10 21  1  0  0  0
 11 22  1  0  0  0
 13 24  1  0  0  0
 14 25  1  0  0  0
 15 17  1  0  0  0
 15 20  1  0  0  0
 16 18  1  0  0  0
 16 20  1  0  0  0
 17 23  1  0  0  0
 18 23  1  0  0  0
 19 23  1  0  0  0
 22 26  1  0  0  0
 32 12  1  0  0  0
 32 21  1  0  0  0
  1  2  2  0  0  0
  3  8  2  0  0  0
  4  7  2  0  0  0
  5 10  2  0  0  0
  6 12  2  0  0  0
  9 11  2  0  0  0
 13 27  2  0  0  0
 14 28  2  0  0  0
 22 29  2  0  0  0
 32 30  2  0  0  0
 32 31  2  0  0  0
M  CHG  5  22   1  23   1  24  -1  25  -1  26  -1
M  END
> <rmsd>
0.520515561

$$$$
ZINC15437189


 30 32  0  0  0  0  0  0  0  0999 V2000
    0.1532   -2.0829   -3.4503 C   0  0  0  0  0
   -0.2311   -3.0907   -2.5659 C   0  0  0  0  0
    2.5172    1.1951    2.0520 C   0  0  0  0  0
   -4.4088   -1.6401   -1.3720 C   0  0  0  0  0
    1.3569   -1.4055   -3.2555 C   0  0  0  0  0
    1.1580    1.5016    1.9868 C   0  0  0  0  0
   -4.3868   -0.3326   -0.8866 C   0  0  0  0  0
    3.2218    0.8975    0.8856 C   0  0  0  0  0
    0.5883   -3.4209   -1.4864 C   0  0  0  0  0
   -3.7296   -2.6491   -0.6890 C   0  0  0  0  0
    1.2080    1.2128   -0.4114 C   0  0  0  0  0
   -3.0063   -1.0430    0.9645 C   0  0  0  0  0
    2.1761   -1.7356   -2.1760 C   0  0  0  0  0
    0.5034    1.5103    0.7550 C   0  0  0  0  0
   -3.6856   -0.0341    0.2816 C   0  0  0  0  0
    2.5672    0.9063   -0.3462 C   0  0  0  0  0
   -3.0283   -2.3505    0.4792 C   0  0  0  0  0
    1.7919   -2.7434   -1.2914 C   0  0  0  0  0
   -1.6811    1.8689   -0.4446 C   0  0  0  0  0
   -3.1915    3.5973    0.6002 C   0  0  0  0  0
   -3.1183    2.2448   -0.0932 C   0  0  0  0  0
    3.3378   -1.0556   -2.0190 N   0  0  0  0  0
   -0.8757    1.8216    0.6886 N   0  0  0  0  0
   -1.3493    1.6351   -1.6033 O   0  0  0  0  0
    2.7781    1.3185   -2.8580 O   0  0  0  0  0
    4.8230    0.9982   -1.5379 O   0  0  0  0  0
   -3.6649    1.2515    0.7597 O   0  0  0  0  0
    3.4494    0.5329   -1.8056 S   0  0  0  0  0
   -2.1911   -3.5961    1.3207 Cl  0  0  0  0  0
    2.7632   -3.2011    0.0676 Cl  0  0  0  0  0
  1  2  1  0  0  0
  3  8  1  0  0  0
  4 10  1  0  0  0
  5 13  1  0  0  0
  6 14  1  0  0  0
  7 15  1  0  0  0
  9 18  1  0  0  0
 11 16  1  0  0  0
 12 17  1  0  0  0
 13 22  1  0  0  0
 14 23  1  0  0  0
 15 27  1  0  0  0
 17 29  1  0  0  0
 18 30  1  0  0  0
 19 23  1  0  0  0
 20 21  1  0  0  0
 21 19  1  0  0  0
 21 27  1  0  0  0
 28 16  1  0  0  0
 28 22  1  0  0  0
  1  5  2  0  0  0
  2  9  2  0  0  0
  3  6  2  0  0  0
  4  7  2  0  0  0
  8 16  2  0  0  0
 10 17  2  0  0  0
 11 14  2  0  0  0
 12 15  2  0  0  0
 13 18  2  0  0  0
 19 24  2  0  0  0
 28 25  2  0  0  0
 28 26  2  0  0  0
M  CHG  1  22  -1
M  END
> <rmsd>
0.371238142

$$$$
ZINC32961622


 32 34  0  0  0  0  0  0  0  0999 V2000
   -2.7221   -2.6320    0.4791 C   0  0  0  0  0
    1.0098    2.8739   -2.2080 C   0  0  0  0  0
   -0.0469    2.7603   -1.3045 C   0  0  0  0  0
   -2.8506   -3.1011   -0.8282 C   0  0  0  0  0
    0.9942    0.8086   -0.3325 C   0  0  0  0  0
   -2.9041   -0.8260   -1.6394 C   0  0  0  0  0
    2.0507    0.9222   -1.2362 C   0  0  0  0  0
   -2.6848   -1.2598    0.7272 C   0  0  0  0  0
    2.0584    1.9549   -2.1739 C   0  0  0  0  0
   -0.0546    1.7277   -0.3668 C   0  0  0  0  0
   -2.9415   -2.1981   -1.8874 C   0  0  0  0  0
   -2.7757   -0.3568   -0.3321 C   0  0  0  0  0
    3.1472   -0.0627   -1.1787 C   0  0  0  0  0
    5.9998    3.2161   -5.8164 C   0  0  0  0  0
    4.2613    2.9116   -2.6924 C   0  0  0  0  0
    2.8286    2.0240   -4.5303 C   0  0  0  0  0
    5.5010    2.5092   -3.4877 C   0  0  0  0  0
    4.0897    1.6386   -5.3027 C   0  0  0  0  0
   -2.5459   -0.7906    2.1385 C   0  0  0  0  0
    5.7346    3.5324   -9.4640 C   0  0  0  0  0
    6.3339    3.7950   -8.0989 C   0  0  0  0  0
    3.1089    2.0863   -3.0892 N   0  0  0  0  0
    5.2140    2.4918   -4.9183 N   0  0  0  0  0
   -1.1363    1.6117    0.5579 N   0  0  0  0  0
    3.0517   -1.1337   -1.8848 O   0  0  0  0  0
    4.1594    0.1847   -0.4243 O   0  0  0  0  0
    6.9651    3.9055   -5.4925 O   0  0  0  0  0
   -3.6859    1.6727    1.0016 O   0  0  0  0  0
   -2.8653    2.0469   -1.3406 O   0  0  0  0  0
    5.5796    3.0803   -7.1130 O   0  0  0  0  0
   -3.0647   -2.6488   -3.1428 F   0  0  0  0  0
   -2.7314    1.3906   -0.0543 S   0  0  0  0  0
  1  8  1  0  0  0
  2  9  1  0  0  0
  3 10  1  0  0  0
  4 11  1  0  0  0
  5  7  1  0  0  0
  6 12  1  0  0  0
  7 13  1  0  0  0
  9 22  1  0  0  0
 10 24  1  0  0  0
 11 31  1  0  0  0
 13 25  1  0  0  0
 14 23  1  0  0  0
 14 30  1  0  0  0
 15 17  1  0  0  0
 15 22  1  0  0  0
 16 18  1  0  0  0
 16 22  1  0  0  0
 17 23  1  0  0  0
 18 23  1  0  0  0
 19  8  1  0  0  0
 20 21  1  0  0  0
 21 30  1  0  0  0
 32 12  1  0  0  0
 32 24  1  0  0  0
  1  4  2  0  0  0
  2  3  2  0  0  0
  5 10  2  0  0  0
  6 11  2  0  0  0
  7  9  2  0  0  0
  8 12  2  0  0  0
 13 26  2  0  0  0
 14 27  2  0  0  0
 32 28  2  0  0  0
 32 29  2  0  0  0
M  CHG  1  25  -1
M  END
> <rmsd>
0.70976311

$$$$
ZINC32961622


 32 34  0  0  0  0  0  0  0  0999 V2000
   -3.0224   -2.6499    0.5391 C   0  0  0  0  0
    0.8582    2.5113   -2.5856 C   0  0  0  0  0
   -0.1150    2.4924   -1.5865 C   0  0  0  0  0
   -3.3085   -3.1229   -0.7415 C   0  0  0  0  0
    0.8576    0.4762   -0.6774 C   0  0  0  0  0
   -3.2607   -0.8605   -1.5878 C   0  0  0  0  0
    1.8308    0.4952   -1.6767 C   0  0  0  0  0
   -2.8557   -1.2821    0.7564 C   0  0  0  0  0
    1.8310    1.5128   -2.6307 C   0  0  0  0  0
   -0.1152    1.4748   -0.6324 C   0  0  0  0  0
   -3.4275   -2.2282   -1.8049 C   0  0  0  0  0
   -2.9748   -0.3874   -0.3071 C   0  0  0  0  0
    2.8481   -0.5727   -1.7015 C   0  0  0  0  0
    5.5009    2.4150   -6.6444 C   0  0  0  0  0
    4.0434    2.2861   -3.3682 C   0  0  0  0  0
    2.3807    1.4927   -5.0489 C   0  0  0  0  0
    5.1684    1.7775   -4.2666 C   0  0  0  0  0
    3.5305    0.9997   -5.9267 C   0  0  0  0  0
   -2.5497   -0.8086    2.1396 C   0  0  0  0  0
    4.9216    2.7079  -10.2575 C   0  0  0  0  0
    5.6643    2.9385   -8.9587 C   0  0  0  0  0
    2.7984    1.5498   -3.6413 N   0  0  0  0  0
    4.7486    1.7659   -5.6641 N   0  0  0  0  0
   -1.1116    1.4557    0.3901 N   0  0  0  0  0
    2.6041   -1.6411   -2.3751 O   0  0  0  0  0
    3.9424   -0.3971   -1.0486 O   0  0  0  0  0
    6.5428    3.0298   -6.4242 O   0  0  0  0  0
   -3.5962    1.7234    1.0656 O   0  0  0  0  0
   -2.9714    2.0037   -1.3490 O   0  0  0  0  0
    4.9522    2.2975   -7.8939 O   0  0  0  0  0
   -3.7021   -2.6826   -3.0348 F   0  0  0  0  0
   -2.7692    1.3542   -0.0682 S   0  0  0  0  0
  1  8  1  0  0  0
  2  9  1  0  0  0
  3 10  1  0  0  0
  4 11  1  0  0  0
  5  7  1  0  0  0
  6 12  1  0  0  0
  7 13  1  0  0  0
  9 22  1  0  0  0
 10 24  1  0  0  0
 11 31  1  0  0  0
 13 25  1  0  0  0
 14 23  1  0  0  0
 14 30  1  0  0  0
 15 17  1  0  0  0
 15 22  1  0  0  0
 16 18  1  0  0  0
 16 22  1  0  0  0
 17 23  1  0  0  0
 18 23  1  0  0  0
 19  8  1  0  0  0
 20 21  1  0  0  0
 21 30  1  0  0  0
 32 12  1  0  0  0
 32 24  1  0  0  0
  1  4  2  0  0  0
  2  3  2  0  0  0
  5 10  2  0  0  0
  6 11  2  0  0  0
  7  9  2  0  0  0
  8 12  2  0  0  0
 13 26  2  0  0  0
 14 27  2  0  0  0
 32 28  2  0  0  0
 32 29  2  0  0  0
M  CHG  1  25  -1
M  END
> <rmsd>
0.528113604

$$$$
ZINC19850932


 34 38  0  0  0  0  0  0  0  0999 V2000
    2.6863    2.7164    1.3751 C   0  0  0  0  0
    2.8986    3.4027    0.1633 C   0  0  0  0  0
    1.4567    2.1160    1.6554 C   0  0  0  0  0
    1.8861    3.5044   -0.7965 C   0  0  0  0  0
   -3.9522   -1.4218    0.5693 C   0  0  0  0  0
   -3.4962   -2.6159   -0.0384 C   0  0  0  0  0
    1.5425   -2.8157   -1.2182 C   0  0  0  0  0
    0.2959   -1.8578   -2.7555 C   0  0  0  0  0
    0.4699    2.2247    0.7016 C   0  0  0  0  0
    0.6747    2.9098   -0.5142 C   0  0  0  0  0
    1.5898   -1.9140   -2.2981 C   0  0  0  0  0
   -3.3534   -0.3911   -0.1170 C   0  0  0  0  0
   -2.6514   -2.2298   -1.0529 C   0  0  0  0  0
   -1.4650    2.1025   -0.5013 C   0  0  0  0  0
   -3.4371    1.0890    0.0502 C   0  0  0  0  0
   -2.1324    3.2748   -5.2856 C   0  0  0  0  0
   -0.1398    2.1392   -6.0198 C   0  0  0  0  0
   -2.2542    3.8979   -6.6733 C   0  0  0  0  0
   -0.3081    2.7900   -7.3898 C   0  0  0  0  0
   -1.8652   -2.9755   -2.0460 C   0  0  0  0  0
   -0.6722    3.4239   -2.5478 C   0  0  0  0  0
   -0.5804    2.3946   -3.6617 C   0  0  0  0  0
    0.3156   -3.2977   -1.0022 N   0  0  0  0  0
   -2.6821    1.8171   -0.8401 N   0  0  0  0  0
   -0.4200   -2.6965   -1.9527 N   0  0  0  0  0
   -0.8395    1.7362    0.6978 N   0  0  0  0  0
   -0.5145    2.8300   -1.2442 N   0  0  0  0  0
   -0.7201    3.0036   -4.9828 N   0  0  0  0  0
    2.6829   -1.2074   -2.8218 N   0  0  0  0  0
    3.8253   -1.3484   -2.3016 O   0  0  0  0  0
   -4.1497    1.5430    0.9413 O   0  0  0  0  0
    2.5147   -0.4372   -3.8085 O   0  0  0  0  0
   -2.5590   -0.8751   -1.1075 O   0  0  0  0  0
   -1.6895    3.0323   -7.6588 O   0  0  0  0  0
  1  2  1  0  0  0
  3  9  1  0  0  0
  4 10  1  0  0  0
  5  6  1  0  0  0
  7 11  1  0  0  0
  8 25  1  0  0  0
  9 26  1  0  0  0
 10 27  1  0  0  0
 11 29  1  0  0  0
 12 15  1  0  0  0
 12 33  1  0  0  0
 13 33  1  0  0  0
 14 26  1  0  0  0
 14 27  1  0  0  0
 15 24  1  0  0  0
 16 18  1  0  0  0
 16 28  1  0  0  0
 17 19  1  0  0  0
 17 28  1  0  0  0
 18 34  1  0  0  0
 19 34  1  0  0  0
 20 13  1  0  0  0
 20 25  1  0  0  0
 21 22  1  0  0  0
 21 27  1  0  0  0
 22 28  1  0  0  0
 25 23  1  0  0  0
 29 30  1  0  0  0
  1  3  2  0  0  0
  2  4  2  0  0  0
  5 12  2  0  0  0
  6 13  2  0  0  0
  7 23  2  0  0  0
  8 11  2  0  0  0
  9 10  2  0  0  0
 14 24  2  0  0  0
 15 31  2  0  0  0
 29 32  2  0  0  0
M  CHG  2  29   1  30  -1
M  END
> <rmsd>
0.491132796

$$$$
ZINC19850932


 34 38  0  0  0  0  0  0  0  0999 V2000
    2.6863    2.7163    1.3757 C   0  0  0  0  0
    2.8986    3.4026    0.1639 C   0  0  0  0  0
    1.4567    2.1159    1.6560 C   0  0  0  0  0
    1.8861    3.5044   -0.7959 C   0  0  0  0  0
   -3.9522   -1.4219    0.5699 C   0  0  0  0  0
   -3.4962   -2.6160   -0.0378 C   0  0  0  0  0
    1.5425   -2.8158   -1.2176 C   0  0  0  0  0
    0.2959   -1.8579   -2.7549 C   0  0  0  0  0
    0.4699    2.2246    0.7022 C   0  0  0  0  0
    0.6747    2.9097   -0.5136 C   0  0  0  0  0
    1.5898   -1.9141   -2.2975 C   0  0  0  0  0
   -3.3534   -0.3912   -0.1164 C   0  0  0  0  0
   -2.6514   -2.2299   -1.0523 C   0  0  0  0  0
   -1.4650    2.1024   -0.5006 C   0  0  0  0  0
   -3.4371    1.0889    0.0508 C   0  0  0  0  0
    0.2245    5.6951   -4.4674 C   0  0  0  0  0
   -1.7632    6.8127   -3.6937 C   0  0  0  0  0
    0.0127    6.3291   -5.8392 C   0  0  0  0  0
   -1.9288    7.4194   -5.0840 C   0  0  0  0  0
   -1.8652   -2.9755   -2.0454 C   0  0  0  0  0
   -0.6722    3.4238   -2.5472 C   0  0  0  0  0
   -0.8895    4.9257   -2.4705 C   0  0  0  0  0
    0.3156   -3.2978   -1.0016 N   0  0  0  0  0
   -2.6821    1.8170   -0.8395 N   0  0  0  0  0
   -0.4200   -2.6966   -1.9521 N   0  0  0  0  0
   -0.8395    1.7361    0.6984 N   0  0  0  0  0
   -0.5145    2.8299   -1.2435 N   0  0  0  0  0
   -1.0695    5.5210   -3.7929 N   0  0  0  0  0
    2.6830   -1.2075   -2.8212 N   0  0  0  0  0
    3.8253   -1.3485   -2.3009 O   0  0  0  0  0
   -4.1497    1.5430    0.9419 O   0  0  0  0  0
    2.5147   -0.4373   -3.8079 O   0  0  0  0  0
   -2.5590   -0.8752   -1.1069 O   0  0  0  0  0
   -0.6556    7.5845   -5.7092 O   0  0  0  0  0
  1  2  1  0  0  0
  3  9  1  0  0  0
  4 10  1  0  0  0
  5  6  1  0  0  0
  7 11  1  0  0  0
  8 25  1  0  0  0
  9 26  1  0  0  0
 10 27  1  0  0  0
 11 29  1  0  0  0
 12 15  1  0  0  0
 12 33  1  0  0  0
 13 33  1  0  0  0
 14 26  1  0  0  0
 14 27  1  0  0  0
 15 24  1  0  0  0
 16 18  1  0  0  0
 16 28  1  0  0  0
 17 19  1  0  0  0
 17 28  1  0  0  0
 18 34  1  0  0  0
 19 34  1  0  0  0
 20 13  1  0  0  0
 20 25  1  0  0  0
 21 22  1  0  0  0
 21 27  1  0  0  0
 22 28  1  0  0  0
 25 23  1  0  0  0
 29 30  1  0  0  0
  1  3  2  0  0  0
  2  4  2  0  0  0
  5 12  2  0  0  0
  6 13  2  0  0  0
  7 23  2  0  0  0
  8 11  2  0  0  0
  9 10  2  0  0  0
 14 24  2  0  0  0
 15 31  2  0  0  0
 29 32  2  0  0  0
M  CHG  2  29   1  30  -1
M  END
> <rmsd>
0.491132617

$$$$
ZINC89651301


 30 32  0  0  0  0  0  0  0  0999 V2000
    1.1372    2.8329   -1.9763 C   0  0  0  0  0
    2.8294   -3.4259   -1.3388 C   0  0  0  0  0
    1.6063   -2.4494   -3.1793 C   0  0  0  0  0
    0.0266    2.7364   -1.1381 C   0  0  0  0  0
   -3.3172   -2.5679    0.4789 C   0  0  0  0  0
   -2.3632   -2.2587   -1.7191 C   0  0  0  0  0
   -3.2821   -1.1893    0.6882 C   0  0  0  0  0
   -2.3282   -0.8801   -1.5099 C   0  0  0  0  0
    2.0770   -4.5943   -1.4587 C   0  0  0  0  0
    0.8540   -3.6178   -3.2993 C   0  0  0  0  0
    0.9881    0.7842   -0.0886 C   0  0  0  0  0
    2.1734    1.9050   -1.8709 C   0  0  0  0  0
    2.5940   -2.3534   -2.1990 C   0  0  0  0  0
   -0.0481    1.7121   -0.1942 C   0  0  0  0  0
   -2.8578   -3.1027   -0.7248 C   0  0  0  0  0
   -2.7875   -0.3453   -0.3062 C   0  0  0  0  0
    2.0989    0.8807   -0.9269 C   0  0  0  0  0
    1.0893   -4.6903   -2.4390 C   0  0  0  0  0
    3.3484    2.0367   -2.7837 C   0  0  0  0  0
   -3.4109   -5.2523    0.1290 C   0  0  0  0  0
    3.3244   -1.2178   -2.0825 N   0  0  0  0  0
   -1.1843    1.6147    0.6645 N   0  0  0  0  0
    4.6111    0.5058   -0.6588 O   0  0  0  0  0
    3.0611   -1.0225    0.4763 O   0  0  0  0  0
   -3.7553    1.7045    0.9537 O   0  0  0  0  0
   -2.7918    2.0502   -1.3379 O   0  0  0  0  0
   -2.8924   -4.4479   -0.9292 O   0  0  0  0  0
    3.3813   -0.2993   -0.7672 S   0  0  0  0  0
   -2.7421    1.4039   -0.0405 S   0  0  0  0  0
    0.1612   -6.1321   -2.5878 Cl  0  0  0  0  0
  1 12  1  0  0  0
  2 13  1  0  0  0
  3 10  1  0  0  0
  4 14  1  0  0  0
  5 15  1  0  0  0
  6  8  1  0  0  0
  7 16  1  0  0  0
  9 18  1  0  0  0
 11 17  1  0  0  0
 13 21  1  0  0  0
 14 22  1  0  0  0
 15 27  1  0  0  0
 18 30  1  0  0  0
 19 12  1  0  0  0
 20 27  1  0  0  0
 28 17  1  0  0  0
 28 21  1  0  0  0
 29 16  1  0  0  0
 29 22  1  0  0  0
  1  4  2  0  0  0
  2  9  2  0  0  0
  3 13  2  0  0  0
  5  7  2  0  0  0
  6 15  2  0  0  0
  8 16  2  0  0  0
 10 18  2  0  0  0
 11 14  2  0  0  0
 12 17  2  0  0  0
 28 23  2  0  0  0
 28 24  2  0  0  0
 29 25  2  0  0  0
 29 26  2  0  0  0
M  CHG  1  21  -1
M  END
> <rmsd>
0.677937031

$$$$
ZINC32962170


 28 30  0  0  0  0  0  0  0  0999 V2000
    0.8691    2.5244   -2.5709 C   0  0  0  0  0
   -0.1068    2.5012   -1.5745 C   0  0  0  0  0
   -3.3759   -1.1946    0.7379 C   0  0  0  0  0
   -2.7427   -0.9363   -1.5793 C   0  0  0  0  0
   -3.5409   -2.5655    0.5400 C   0  0  0  0  0
   -2.9075   -2.3072   -1.7772 C   0  0  0  0  0
    0.8586    0.4767   -0.6762 C   0  0  0  0  0
    1.8344    0.4999   -1.6727 C   0  0  0  0  0
    1.8396    1.5238   -2.6200 C   0  0  0  0  0
   -0.1121    1.4774   -0.6272 C   0  0  0  0  0
   -2.9769   -0.3800   -0.3218 C   0  0  0  0  0
   -3.3066   -3.1218   -0.7174 C   0  0  0  0  0
    2.8492   -0.5701   -1.7019 C   0  0  0  0  0
    2.4998    3.9953   -5.7648 C   0  0  0  0  0
    3.8633    4.2170   -5.1069 C   0  0  0  0  0
    2.3894    2.7156   -6.5964 C   0  0  0  0  0
    3.9571    3.7767   -3.6462 C   0  0  0  0  0
    1.7427    1.5309   -5.8788 C   0  0  0  0  0
    4.0830    2.2686   -3.4426 C   0  0  0  0  0
    2.6516    0.8185   -4.8798 C   0  0  0  0  0
    2.8093    1.5651   -3.6273 N   0  0  0  0  0
   -1.1112    1.4539    0.3924 N   0  0  0  0  0
    2.6044   -1.6335   -2.3832 O   0  0  0  0  0
    3.9421   -0.4016   -1.0449 O   0  0  0  0  0
   -3.5969    1.7232    1.0631 O   0  0  0  0  0
   -2.9649    2.0179   -1.3479 O   0  0  0  0  0
   -2.7678    1.3595   -0.0708 S   0  0  0  0  0
   -3.5305   -4.9791   -0.9857 Br  0  0  0  0  0
  1  9  1  0  0  0
  2 10  1  0  0  0
  3  5  1  0  0  0
  4 11  1  0  0  0
  6 12  1  0  0  0
  7  8  1  0  0  0
  8 13  1  0  0  0
  9 21  1  0  0  0
 10 22  1  0  0  0
 12 28  1  0  0  0
 13 23  1  0  0  0
 14 15  1  0  0  0
 14 16  1  0  0  0
 15 17  1  0  0  0
 16 18  1  0  0  0
 17 19  1  0  0  0
 18 20  1  0  0  0
 19 21  1  0  0  0
 20 21  1  0  0  0
 27 11  1  0  0  0
 27 22  1  0  0  0
  1  2  2  0  0  0
  3 11  2  0  0  0
  4  6  2  0  0  0
  5 12  2  0  0  0
  7 10  2  0  0  0
  8  9  2  0  0  0
 13 24  2  0  0  0
 27 25  2  0  0  0
 27 26  2  0  0  0
M  CHG  1  23  -1
M  END
> <rmsd>
0.52605629

$$$$
ZINC32962170


 28 30  0  0  0  0  0  0  0  0999 V2000
    1.0214    2.8841   -2.1900 C   0  0  0  0  0
   -0.0380    2.7671   -1.2903 C   0  0  0  0  0
   -3.2077   -1.2124    0.6619 C   0  0  0  0  0
   -2.3840   -0.8628   -1.5823 C   0  0  0  0  0
   -3.2453   -2.5880    0.4338 C   0  0  0  0  0
   -2.4215   -2.2384   -1.8104 C   0  0  0  0  0
    0.9956    0.8067   -0.3281 C   0  0  0  0  0
    2.0550    0.9237   -1.2279 C   0  0  0  0  0
    2.0679    1.9624   -2.1589 C   0  0  0  0  0
   -0.0510    1.7284   -0.3593 C   0  0  0  0  0
   -2.7771   -0.3498   -0.3462 C   0  0  0  0  0
   -2.8522   -3.1010   -0.8022 C   0  0  0  0  0
    3.1490   -0.0641   -1.1736 C   0  0  0  0  0
    2.8215    4.5357   -5.1993 C   0  0  0  0  0
    4.0963    4.8497   -4.4134 C   0  0  0  0  0
    2.8898    3.2670   -6.0520 C   0  0  0  0  0
    4.0881    4.3907   -2.9554 C   0  0  0  0  0
    2.2742    2.0228   -5.4120 C   0  0  0  0  0
    4.3125    2.8933   -2.7580 C   0  0  0  0  0
    3.1394    1.3641   -4.3400 C   0  0  0  0  0
    3.1208    2.0971   -3.0698 N   0  0  0  0  0
   -1.1357    1.6089    0.5612 N   0  0  0  0  0
    3.0530   -1.1304   -1.8869 O   0  0  0  0  0
    4.1595    0.1759   -0.4147 O   0  0  0  0  0
   -3.6864    1.6732    0.9979 O   0  0  0  0  0
   -2.8581    2.0606   -1.3393 O   0  0  0  0  0
   -2.7295    1.3957   -0.0570 S   0  0  0  0  0
   -2.9036   -4.9647   -1.1114 Br  0  0  0  0  0
  1  9  1  0  0  0
  2 10  1  0  0  0
  3  5  1  0  0  0
  4 11  1  0  0  0
  6 12  1  0  0  0
  7  8  1  0  0  0
  8 13  1  0  0  0
  9 21  1  0  0  0
 10 22  1  0  0  0
 12 28  1  0  0  0
 13 23  1  0  0  0
 14 15  1  0  0  0
 14 16  1  0  0  0
 15 17  1  0  0  0
 16 18  1  0  0  0
 17 19  1  0  0  0
 18 20  1  0  0  0
 19 21  1  0  0  0
 20 21  1  0  0  0
 27 11  1  0  0  0
 27 22  1  0  0  0
  1  2  2  0  0  0
  3 11  2  0  0  0
  4  6  2  0  0  0
  5 12  2  0  0  0
  7 10  2  0  0  0
  8  9  2  0  0  0
 13 24  2  0  0  0
 27 25  2  0  0  0
 27 26  2  0  0  0
M  CHG  1  23  -1
M  END
> <rmsd>
0.707224011

$$$$
ZINC00808530


 30 32  0  0  0  0  0  0  0  0999 V2000
    1.6620    2.5869   -1.4512 C   0  0  0  0  0
   -3.0903   -2.6107    0.7145 C   0  0  0  0  0
    0.5190    2.6298   -0.6531 C   0  0  0  0  0
    2.2887    1.3672   -1.7069 C   0  0  0  0  0
   -3.1227   -3.1555   -0.5691 C   0  0  0  0  0
   -0.8648   -4.6341   -3.5049 C   0  0  0  0  0
   -0.6439   -2.4211   -4.4489 C   0  0  0  0  0
    0.4419   -4.9300   -3.8928 C   0  0  0  0  0
    0.6628   -2.7170   -4.8368 C   0  0  0  0  0
    0.6292    0.2334   -0.3660 C   0  0  0  0  0
   -2.9014   -0.9429   -1.5139 C   0  0  0  0  0
   -2.9634   -1.2320    0.8840 C   0  0  0  0  0
    0.0026    1.4532   -0.1104 C   0  0  0  0  0
    1.7723    0.1904   -1.1642 C   0  0  0  0  0
   -1.4077   -3.3796   -3.7829 C   0  0  0  0  0
   -3.0283   -2.3217   -1.6833 C   0  0  0  0  0
   -2.8690   -0.3981   -0.2302 C   0  0  0  0  0
    1.2058   -3.9715   -4.5588 C   0  0  0  0  0
   -2.9331   -0.6808    2.2720 C   0  0  0  0  0
   -1.1758    1.4979    0.7128 N   0  0  0  0  0
    2.4101   -1.0509   -1.4258 N   0  0  0  0  0
    3.4366   -1.0670   -2.1473 O   0  0  0  0  0
    1.9301   -2.0980   -0.9280 O   0  0  0  0  0
   -3.5186   -1.9843   -4.2294 O   0  0  0  0  0
   -3.7956   -4.2607   -3.1842 O   0  0  0  0  0
   -3.7345    1.7794    0.8814 O   0  0  0  0  0
   -2.6590    1.9330   -1.3813 O   0  0  0  0  0
   -3.0685   -3.0033   -3.2899 S   0  0  0  0  0
   -2.7091    1.3359   -0.0538 S   0  0  0  0  0
    2.8190   -4.3354   -5.0347 Cl  0  0  0  0  0
  1  4  1  0  0  0
  2 12  1  0  0  0
  3 13  1  0  0  0
  5 16  1  0  0  0
  6 15  1  0  0  0
  7  9  1  0  0  0
  8 18  1  0  0  0
 10 14  1  0  0  0
 11 17  1  0  0  0
 13 20  1  0  0  0
 14 21  1  0  0  0
 18 30  1  0  0  0
 19 12  1  0  0  0
 21 22  1  0  0  0
 28 15  1  0  0  0
 28 16  1  0  0  0
 29 17  1  0  0  0
 29 20  1  0  0  0
  1  3  2  0  0  0
  2  5  2  0  0  0
  4 14  2  0  0  0
  6  8  2  0  0  0
  7 15  2  0  0  0
  9 18  2  0  0  0
 10 13  2  0  0  0
 11 16  2  0  0  0
 12 17  2  0  0  0
 21 23  2  0  0  0
 28 24  2  0  0  0
 28 25  2  0  0  0
 29 26  2  0  0  0
 29 27  2  0  0  0
M  CHG  2  21   1  22  -1
M  END
> <rmsd>
0.562192559

$$$$
ZINC35397588


 28 30  0  0  0  0  0  0  0  0999 V2000
   -3.2323   -1.2082    0.6733 C   0  0  0  0  0
   -2.3867   -0.8795   -1.5660 C   0  0  0  0  0
   -3.2797   -2.5848    0.4534 C   0  0  0  0  0
   -2.4340   -2.2561   -1.7858 C   0  0  0  0  0
    1.0042    0.7847   -0.3095 C   0  0  0  0  0
    0.0109    2.7189   -1.2733 C   0  0  0  0  0
    2.0565    0.9140   -1.2092 C   0  0  0  0  0
   -0.0420    1.7001   -0.3357 C   0  0  0  0  0
   -2.7859   -0.3555   -0.3364 C   0  0  0  0  0
   -2.8804   -3.1088   -0.7761 C   0  0  0  0  0
    2.0154    1.9678   -2.1079 C   0  0  0  0  0
    3.1636   -0.0571   -1.1796 C   0  0  0  0  0
    2.7765    4.5469   -5.1416 C   0  0  0  0  0
    4.0494    4.8593   -4.3521 C   0  0  0  0  0
    2.8467    3.2799   -5.9966 C   0  0  0  0  0
    4.0377    4.3975   -2.8950 C   0  0  0  0  0
    2.2296    2.0345   -5.3605 C   0  0  0  0  0
    4.2615    2.8997   -2.6999 C   0  0  0  0  0
    3.0920    1.3737   -4.2876 C   0  0  0  0  0
    1.0162    2.8769   -2.1633 N   0  0  0  0  0
    3.0706    2.1043   -3.0160 N   0  0  0  0  0
   -1.1343    1.5938    0.5732 N   0  0  0  0  0
    3.0767   -1.1166   -1.9055 O   0  0  0  0  0
    4.1803    0.1866   -0.4284 O   0  0  0  0  0
   -3.6906    1.6835    0.9863 O   0  0  0  0  0
   -2.8364    2.0492   -1.3452 O   0  0  0  0  0
   -2.7260    1.3912   -0.0575 S   0  0  0  0  0
   -2.9451   -4.9739   -1.0742 Br  0  0  0  0  0
  1  3  1  0  0  0
  2  9  1  0  0  0
  4 10  1  0  0  0
  5  8  1  0  0  0
  6 20  1  0  0  0
  7 11  1  0  0  0
  7 12  1  0  0  0
  8 22  1  0  0  0
 10 28  1  0  0  0
 11 21  1  0  0  0
 12 23  1  0  0  0
 13 14  1  0  0  0
 13 15  1  0  0  0
 14 16  1  0  0  0
 15 17  1  0  0  0
 16 18  1  0  0  0
 17 19  1  0  0  0
 18 21  1  0  0  0
 19 21  1  0  0  0
 27  9  1  0  0  0
 27 22  1  0  0  0
  1  9  2  0  0  0
  2  4  2  0  0  0
  3 10  2  0  0  0
  5  7  2  0  0  0
  6  8  2  0  0  0
 11 20  2  0  0  0
 12 24  2  0  0  0
 27 25  2  0  0  0
 27 26  2  0  0  0
M  CHG  1  23  -1
M  END
> <rmsd>
0.688878179

$$$$
ZINC35397588


 28 30  0  0  0  0  0  0  0  0999 V2000
   -3.3972   -1.1893    0.7493 C   0  0  0  0  0
   -2.7438   -0.9515   -1.5645 C   0  0  0  0  0
   -3.5704   -2.5602    0.5595 C   0  0  0  0  0
   -2.9170   -2.3225   -1.7542 C   0  0  0  0  0
    0.8680    0.4567   -0.6596 C   0  0  0  0  0
   -0.0607    2.4520   -1.5612 C   0  0  0  0  0
    1.8375    0.4940   -1.6555 C   0  0  0  0  0
   -0.1029    1.4506   -0.6045 C   0  0  0  0  0
   -2.9840   -0.3848   -0.3127 C   0  0  0  0  0
   -3.3302   -3.1269   -0.6922 C   0  0  0  0  0
    1.7927    1.5381   -2.5653 C   0  0  0  0  0
    2.8648   -0.5601   -1.7118 C   0  0  0  0  0
    2.4597    4.0175   -5.7025 C   0  0  0  0  0
    3.8216    4.2381   -5.0407 C   0  0  0  0  0
    2.3518    2.7397   -6.5374 C   0  0  0  0  0
    3.9119    3.7942   -3.5809 C   0  0  0  0  0
    1.7037    1.5532   -5.8243 C   0  0  0  0  0
    4.0378    2.2856   -3.3806 C   0  0  0  0  0
    2.6104    0.8386   -4.8248 C   0  0  0  0  0
    0.8653    2.5216   -2.5437 N   0  0  0  0  0
    2.7649    1.5822   -3.5701 N   0  0  0  0  0
   -1.1095    1.4393    0.4040 N   0  0  0  0  0
    2.6290   -1.6174   -2.4072 O   0  0  0  0  0
    3.9635   -0.3884   -1.0631 O   0  0  0  0  0
   -3.6011    1.7325    1.0517 O   0  0  0  0  0
   -2.9450    2.0056   -1.3554 O   0  0  0  0  0
   -2.7644    1.3548   -0.0720 S   0  0  0  0  0
   -3.5654   -4.9844   -0.9494 Br  0  0  0  0  0
  1  3  1  0  0  0
  2  9  1  0  0  0
  4 10  1  0  0  0
  5  8  1  0  0  0
  6 20  1  0  0  0
  7 11  1  0  0  0
  7 12  1  0  0  0
  8 22  1  0  0  0
 10 28  1  0  0  0
 11 21  1  0  0  0
 12 23  1  0  0  0
 13 14  1  0  0  0
 13 15  1  0  0  0
 14 16  1  0  0  0
 15 17  1  0  0  0
 16 18  1  0  0  0
 17 19  1  0  0  0
 18 21  1  0  0  0
 19 21  1  0  0  0
 27  9  1  0  0  0
 27 22  1  0  0  0
  1  9  2  0  0  0
  2  4  2  0  0  0
  3 10  2  0  0  0
  5  7  2  0  0  0
  6  8  2  0  0  0
 11 20  2  0  0  0
 12 24  2  0  0  0
 27 25  2  0  0  0
 27 26  2  0  0  0
M  CHG  1  23  -1
M  END
> <rmsd>
0.509937406

$$$$
ZINC16926260


 33 35  0  0  0  0  0  0  0  0999 V2000
   -3.5121   -2.4372    0.8669 C   0  0  0  0  0
   -4.3095   -2.8943   -1.3674 C   0  0  0  0  0
   -3.3328   -1.0959    0.5286 C   0  0  0  0  0
   -4.1301   -1.5531   -1.7058 C   0  0  0  0  0
    2.2276   -1.5072    0.6093 C   0  0  0  0  0
    0.3898   -0.3001    1.6102 C   0  0  0  0  0
    1.2842    0.4096   -0.5190 C   0  0  0  0  0
    1.3170   -1.3413    1.6527 C   0  0  0  0  0
    2.2114   -0.6316   -0.4765 C   0  0  0  0  0
   -4.0004   -3.3363   -0.0811 C   0  0  0  0  0
   -3.6419   -0.6539   -0.7578 C   0  0  0  0  0
    0.3734    0.5755    0.5244 C   0  0  0  0  0
   -3.5802    1.7495   -0.1560 C   0  0  0  0  0
   -3.1640    1.1199   -2.4087 C   0  0  0  0  0
    1.3339   -2.2653    2.7983 C   0  0  0  0  0
    3.1724   -0.8070   -1.5778 C   0  0  0  0  0
   -0.7220    2.5899   -0.5168 C   0  0  0  0  0
   -3.1947    3.0959   -0.7226 C   0  0  0  0  0
   -1.9113   -7.9132    0.0273 C   0  0  0  0  0
   -4.1935   -4.7866    0.2843 C   0  0  0  0  0
   -1.8530    3.5458   -0.1679 C   0  0  0  0  0
   -3.1464   -7.0845    0.3422 C   0  0  0  0  0
   -2.9329   -5.6093    0.0032 C   0  0  0  0  0
   -3.4573    0.7300   -1.1074 N   0  0  0  0  0
   -0.5666    1.6326    0.4816 N   0  0  0  0  0
    0.4826   -2.0899    3.7486 O   0  0  0  0  0
    3.1358    0.0148   -2.5686 O   0  0  0  0  0
   -3.9685    1.6509    1.0058 O   0  0  0  0  0
   -2.9185    0.4357   -3.3911 O   0  0  0  0  0
    2.1999   -3.2185    2.8129 O   0  0  0  0  0
    4.0175   -1.7766   -1.5141 O   0  0  0  0  0
   -0.0732    2.6998   -1.5519 O   0  0  0  0  0
   -3.1066    2.8710   -2.5084 S   0  0  0  0  0
  1 10  1  0  0  0
  2  4  1  0  0  0
  3 11  1  0  0  0
  5  8  1  0  0  0
  6 12  1  0  0  0
  7  9  1  0  0  0
  8 15  1  0  0  0
  9 16  1  0  0  0
 11 24  1  0  0  0
 12 25  1  0  0  0
 13 24  1  0  0  0
 14 24  1  0  0  0
 14 33  1  0  0  0
 15 26  1  0  0  0
 16 27  1  0  0  0
 17 25  1  0  0  0
 18 13  1  0  0  0
 18 21  1  0  0  0
 18 33  1  0  0  0
 19 22  1  0  0  0
 20 10  1  0  0  0
 20 23  1  0  0  0
 21 17  1  0  0  0
 22 23  1  0  0  0
  1  3  2  0  0  0
  2 10  2  0  0  0
  4 11  2  0  0  0
  5  9  2  0  0  0
  6  8  2  0  0  0
  7 12  2  0  0  0
 13 28  2  0  0  0
 14 29  2  0  0  0
 15 30  2  0  0  0
 16 31  2  0  0  0
 17 32  2  0  0  0
M  CHG  2  26  -1  27  -1
M  END
> <rmsd>
0.329825848

$$$$
ZINC16926260


 33 35  0  0  0  0  0  0  0  0999 V2000
   -4.3089   -2.8952   -1.3666 C   0  0  0  0  0
   -3.5114   -2.4367    0.8675 C   0  0  0  0  0
   -4.1305   -1.5540   -1.7055 C   0  0  0  0  0
   -3.3329   -1.0955    0.5284 C   0  0  0  0  0
    2.2268   -1.5084    0.6090 C   0  0  0  0  0
    0.3891   -0.3013    1.6101 C   0  0  0  0  0
    1.2837    0.4087   -0.5189 C   0  0  0  0  0
    1.3162   -1.3426    1.6524 C   0  0  0  0  0
    2.2107   -0.6327   -0.4766 C   0  0  0  0  0
   -3.9994   -3.3365   -0.0800 C   0  0  0  0  0
   -3.6425   -0.6542   -0.7581 C   0  0  0  0  0
    0.3729    0.5745    0.5244 C   0  0  0  0  0
   -3.5806    1.7491   -0.1559 C   0  0  0  0  0
   -3.1643    1.1199   -2.4087 C   0  0  0  0  0
    1.3330   -2.2668    2.7978 C   0  0  0  0  0
    3.1718   -0.8080   -1.5780 C   0  0  0  0  0
   -0.7222    2.5892   -0.5165 C   0  0  0  0  0
   -3.1948    3.0956   -0.7223 C   0  0  0  0  0
   -7.1552   -6.7585    1.8316 C   0  0  0  0  0
   -4.1931   -4.7863    0.2869 C   0  0  0  0  0
   -1.8531    3.5452   -0.1675 C   0  0  0  0  0
   -5.7760   -6.5064    1.2438 C   0  0  0  0  0
   -5.5975   -5.0427    0.8405 C   0  0  0  0  0
   -3.4578    0.7298   -1.1074 N   0  0  0  0  0
   -0.5669    1.6317    0.4818 N   0  0  0  0  0
    0.4817   -2.0914    3.7481 O   0  0  0  0  0
    3.1353    0.0140   -2.5686 O   0  0  0  0  0
   -3.9689    1.6504    1.0059 O   0  0  0  0  0
   -2.9189    0.4358   -3.3912 O   0  0  0  0  0
    2.1988   -3.2201    2.8124 O   0  0  0  0  0
    4.0168   -1.7777   -1.5144 O   0  0  0  0  0
   -0.0734    2.6992   -1.5515 O   0  0  0  0  0
   -3.1068    2.8710   -2.5081 S   0  0  0  0  0
  1 10  1  0  0  0
  2  4  1  0  0  0
  3 11  1  0  0  0
  5  8  1  0  0  0
  6 12  1  0  0  0
  7  9  1  0  0  0
  8 15  1  0  0  0
  9 16  1  0  0  0
 11 24  1  0  0  0
 12 25  1  0  0  0
 13 24  1  0  0  0
 14 24  1  0  0  0
 14 33  1  0  0  0
 15 26  1  0  0  0
 16 27  1  0  0  0
 17 25  1  0  0  0
 18 13  1  0  0  0
 18 21  1  0  0  0
 18 33  1  0  0  0
 19 22  1  0  0  0
 20 10  1  0  0  0
 20 23  1  0  0  0
 21 17  1  0  0  0
 22 23  1  0  0  0
  1  3  2  0  0  0
  2 10  2  0  0  0
  4 11  2  0  0  0
  5  9  2  0  0  0
  6  8  2  0  0  0
  7 12  2  0  0  0
 13 28  2  0  0  0
 14 29  2  0  0  0
 15 30  2  0  0  0
 16 31  2  0  0  0
 17 32  2  0  0  0
M  CHG  2  26  -1  27  -1
M  END
> <rmsd>
0.329600662

$$$$
ZINC33253049


 33 36  0  0  0  0  0  0  0  0999 V2000
   -3.5403   -2.5663    0.5396 C   0  0  0  0  0
   -2.9068   -2.3071   -1.7775 C   0  0  0  0  0
    0.8689    2.5239   -2.5709 C   0  0  0  0  0
    5.8986    0.6250   -7.5833 C   0  0  0  0  0
    6.5981    2.8069   -6.8170 C   0  0  0  0  0
   -0.1068    2.5007   -1.5744 C   0  0  0  0  0
    6.8659    0.6675   -8.5873 C   0  0  0  0  0
    7.5655    2.8494   -7.8210 C   0  0  0  0  0
   -3.3759   -1.1955    0.7379 C   0  0  0  0  0
   -2.7424   -0.9362   -1.5791 C   0  0  0  0  0
    0.8585    0.4763   -0.6761 C   0  0  0  0  0
    1.8343    0.4995   -1.6725 C   0  0  0  0  0
   -3.3057   -3.1221   -0.7182 C   0  0  0  0  0
    5.7646    1.6948   -6.6982 C   0  0  0  0  0
    1.8395    1.5233   -2.6199 C   0  0  0  0  0
   -0.1120    1.4770   -0.6270 C   0  0  0  0  0
    7.6994    1.7796   -8.7062 C   0  0  0  0  0
   -2.9769   -0.3805   -0.3214 C   0  0  0  0  0
    2.8491   -0.5706   -1.7018 C   0  0  0  0  0
    3.5497    0.9157   -5.8830 C   0  0  0  0  0
    5.0053    2.3417   -4.4218 C   0  0  0  0  0
    2.4267    1.5192   -5.0349 C   0  0  0  0  0
    4.2276    1.6552   -3.2955 C   0  0  0  0  0
   -3.4793   -4.5880   -0.9300 C   0  0  0  0  0
    4.7999    1.6516   -5.6952 N   0  0  0  0  0
    2.8048    1.5643   -3.6226 N   0  0  0  0  0
   -1.1112    1.4536    0.3927 N   0  0  0  0  0
    2.6043   -1.6340   -2.3830 O   0  0  0  0  0
    3.9421   -0.4020   -1.0449 O   0  0  0  0  0
   -3.5969    1.7229    1.0635 O   0  0  0  0  0
   -2.9650    2.0174   -1.3476 O   0  0  0  0  0
    8.6282    1.8207   -9.6705 F   0  0  0  0  0
   -2.7678    1.3590   -0.0705 S   0  0  0  0  0
  1 13  1  0  0  0
  2 10  1  0  0  0
  3 15  1  0  0  0
  4 14  1  0  0  0
  5  8  1  0  0  0
  6 16  1  0  0  0
  7 17  1  0  0  0
  9 18  1  0  0  0
 11 12  1  0  0  0
 12 19  1  0  0  0
 14 25  1  0  0  0
 15 26  1  0  0  0
 16 27  1  0  0  0
 17 32  1  0  0  0
 19 28  1  0  0  0
 20 22  1  0  0  0
 20 25  1  0  0  0
 21 23  1  0  0  0
 21 25  1  0  0  0
 22 26  1  0  0  0
 23 26  1  0  0  0
 24 13  1  0  0  0
 33 18  1  0  0  0
 33 27  1  0  0  0
  1  9  2  0  0  0
  2 13  2  0  0  0
  3  6  2  0  0  0
  4  7  2  0  0  0
  5 14  2  0  0  0
  8 17  2  0  0  0
 10 18  2  0  0  0
 11 16  2  0  0  0
 12 15  2  0  0  0
 19 29  2  0  0  0
 33 30  2  0  0  0
 33 31  2  0  0  0
M  CHG  1  28  -1
M  END
> <rmsd>
0.526137233

$$$$
ZINC33253049


 33 36  0  0  0  0  0  0  0  0999 V2000
   -3.2447   -2.5887    0.4335 C   0  0  0  0  0
   -2.4210   -2.2382   -1.8106 C   0  0  0  0  0
    1.0210    2.8837   -2.1902 C   0  0  0  0  0
    6.6283    1.4723   -6.7283 C   0  0  0  0  0
    7.0800    3.6870   -5.8748 C   0  0  0  0  0
   -0.0383    2.7667   -1.2903 C   0  0  0  0  0
    7.6784    1.6081   -7.6362 C   0  0  0  0  0
    8.1301    3.8228   -6.7828 C   0  0  0  0  0
   -3.2076   -1.2133    0.6619 C   0  0  0  0  0
   -2.3839   -0.8626   -1.5821 C   0  0  0  0  0
    0.9954    0.8063   -0.3282 C   0  0  0  0  0
    2.0547    0.9233   -1.2281 C   0  0  0  0  0
   -2.8513   -3.1012   -0.8029 C   0  0  0  0  0
    6.3290    2.5119   -5.8476 C   0  0  0  0  0
    2.0675    1.9620   -2.1591 C   0  0  0  0  0
   -0.0511    1.7281   -0.3593 C   0  0  0  0  0
    8.4293    2.7832   -7.6635 C   0  0  0  0  0
   -2.7772   -0.3502   -0.3458 C   0  0  0  0  0
    3.1487   -0.0646   -1.1739 C   0  0  0  0  0
    4.1159    1.5492   -5.2534 C   0  0  0  0  0
    5.3129    3.0557   -3.6456 C   0  0  0  0  0
    2.8751    2.0483   -4.5080 C   0  0  0  0  0
    4.4903    2.2904   -2.6053 C   0  0  0  0  0
   -2.8888   -4.5719   -1.0468 C   0  0  0  0  0
    5.2816    2.3757   -4.9404 N   0  0  0  0  0
    3.1156    2.0961   -3.0659 N   0  0  0  0  0
   -1.1358    1.6087    0.5615 N   0  0  0  0  0
    3.0526   -1.1307   -1.8871 O   0  0  0  0  0
    4.1594    0.1756   -0.4151 O   0  0  0  0  0
   -3.6865    1.6728    0.9984 O   0  0  0  0  0
   -2.8584    2.0602   -1.3390 O   0  0  0  0  0
    9.4377    2.9139   -8.5356 F   0  0  0  0  0
   -2.7296    1.3953   -0.0566 S   0  0  0  0  0
  1 13  1  0  0  0
  2 10  1  0  0  0
  3 15  1  0  0  0
  4 14  1  0  0  0
  5  8  1  0  0  0
  6 16  1  0  0  0
  7 17  1  0  0  0
  9 18  1  0  0  0
 11 12  1  0  0  0
 12 19  1  0  0  0
 14 25  1  0  0  0
 15 26  1  0  0  0
 16 27  1  0  0  0
 17 32  1  0  0  0
 19 28  1  0  0  0
 20 22  1  0  0  0
 20 25  1  0  0  0
 21 23  1  0  0  0
 21 25  1  0  0  0
 22 26  1  0  0  0
 23 26  1  0  0  0
 24 13  1  0  0  0
 33 18  1  0  0  0
 33 27  1  0  0  0
  1  9  2  0  0  0
  2 13  2  0  0  0
  3  6  2  0  0  0
  4  7  2  0  0  0
  5 14  2  0  0  0
  8 17  2  0  0  0
 10 18  2  0  0  0
 11 16  2  0  0  0
 12 15  2  0  0  0
 19 29  2  0  0  0
 33 30  2  0  0  0
 33 31  2  0  0  0
M  CHG  1  28  -1
M  END
> <rmsd>
0.70714736

$$$$
ZINC08396681


 33 35  0  0  0  0  0  0  0  0999 V2000
   -4.0891   -9.4794   -1.0698 C   0  0  0  0  0
   -5.2126   -8.6619   -1.1923 C   0  0  0  0  0
   -2.9057   -8.9639   -0.5410 C   0  0  0  0  0
   -5.1528   -7.3289   -0.7861 C   0  0  0  0  0
   -2.8459   -7.6307   -0.1348 C   0  0  0  0  0
   -3.5513   -2.5629    0.5463 C   0  0  0  0  0
   -3.3842   -1.1919    0.7411 C   0  0  0  0  0
    1.8466    1.5100   -2.6081 C   0  0  0  0  0
   -0.1017    2.4922   -1.5709 C   0  0  0  0  0
    0.8576    0.4681   -0.6656 C   0  0  0  0  0
   -2.7451   -0.9405   -1.5752 C   0  0  0  0  0
    0.8774    2.5121   -2.5642 C   0  0  0  0  0
    1.8368    0.4879   -1.6589 C   0  0  0  0  0
   -3.9694   -6.8132   -0.2573 C   0  0  0  0  0
   -3.3152   -3.1227   -0.7094 C   0  0  0  0  0
   -0.1116    1.4702   -0.6216 C   0  0  0  0  0
   -2.9122   -2.3115   -1.7701 C   0  0  0  0  0
   -2.9810   -0.3807   -0.3195 C   0  0  0  0  0
    0.8879    3.5905   -3.5659 C   0  0  0  0  0
    2.8596   -0.5697   -1.7055 C   0  0  0  0  0
   -3.9049   -5.3783    0.1797 C   0  0  0  0  0
   -3.4927   -4.5145   -0.8808 N   0  0  0  0  0
   -1.1132    1.4506    0.3958 N   0  0  0  0  0
   -2.6654   -2.8567   -3.0613 N   0  0  0  0  0
   -0.0183    4.5033   -3.5033 O   0  0  0  0  0
    2.8282   -1.5015   -0.8172 O   0  0  0  0  0
   -1.5104   -3.2558   -3.3387 O   0  0  0  0  0
    1.8028    3.5854   -4.4723 O   0  0  0  0  0
    3.7522   -0.5280   -2.6328 O   0  0  0  0  0
   -3.6109   -2.9211   -3.8814 O   0  0  0  0  0
   -3.5998    1.7261    1.0604 O   0  0  0  0  0
   -2.9618    2.0154   -1.3497 O   0  0  0  0  0
   -2.7689    1.3588   -0.0710 S   0  0  0  0  0
  1  2  1  0  0  0
  3  5  1  0  0  0
  4 14  1  0  0  0
  6 15  1  0  0  0
  7 18  1  0  0  0
  8 12  1  0  0  0
  9 16  1  0  0  0
 10 13  1  0  0  0
 11 17  1  0  0  0
 12 19  1  0  0  0
 13 20  1  0  0  0
 15 22  1  0  0  0
 16 23  1  0  0  0
 17 24  1  0  0  0
 19 25  1  0  0  0
 20 26  1  0  0  0
 21 14  1  0  0  0
 21 22  1  0  0  0
 24 27  1  0  0  0
 33 18  1  0  0  0
 33 23  1  0  0  0
  1  3  2  0  0  0
  2  4  2  0  0  0
  5 14  2  0  0  0
  6  7  2  0  0  0
  8 13  2  0  0  0
  9 12  2  0  0  0
 10 16  2  0  0  0
 11 18  2  0  0  0
 15 17  2  0  0  0
 19 28  2  0  0  0
 20 29  2  0  0  0
 24 30  2  0  0  0
 33 31  2  0  0  0
 33 32  2  0  0  0
M  CHG  4  24   1  25  -1  26  -1  27  -1
M  END
> <rmsd>
0.518573344

$$$$
ZINC08396681


 33 35  0  0  0  0  0  0  0  0999 V2000
   -4.0727   -9.3283   -2.1427 C   0  0  0  0  0
   -2.7930   -8.8648   -1.8376 C   0  0  0  0  0
   -5.0829   -8.4234   -2.4687 C   0  0  0  0  0
   -2.5235   -7.4965   -1.8584 C   0  0  0  0  0
   -4.8134   -7.0549   -2.4894 C   0  0  0  0  0
   -2.9117   -2.3103   -1.7708 C   0  0  0  0  0
   -2.7446   -0.9395   -1.5744 C   0  0  0  0  0
    1.8465    1.5094   -2.6086 C   0  0  0  0  0
   -0.1017    2.4918   -1.5713 C   0  0  0  0  0
    0.8580    0.4681   -0.6654 C   0  0  0  0  0
   -3.3836   -1.1932    0.7417 C   0  0  0  0  0
    0.8772    2.5114   -2.5648 C   0  0  0  0  0
    1.8370    0.4877   -1.6589 C   0  0  0  0  0
   -3.5337   -6.5914   -2.1843 C   0  0  0  0  0
   -3.3149   -3.1226   -0.7108 C   0  0  0  0  0
   -0.1113    1.4702   -0.6217 C   0  0  0  0  0
   -3.5507   -2.5641    0.5454 C   0  0  0  0  0
   -2.9805   -0.3809   -0.3184 C   0  0  0  0  0
    0.8874    3.5894   -3.5670 C   0  0  0  0  0
    2.8599   -0.5699   -1.7053 C   0  0  0  0  0
   -3.2437   -5.1185   -2.2065 C   0  0  0  0  0
   -3.4761   -4.5087   -0.9357 N   0  0  0  0  0
   -1.1127    1.4509    0.3960 N   0  0  0  0  0
   -3.9620   -3.3699    1.6439 N   0  0  0  0  0
   -0.0189    4.5022   -3.5045 O   0  0  0  0  0
    2.8288   -1.5013   -0.8167 O   0  0  0  0  0
   -5.1872   -3.5463    1.8394 O   0  0  0  0  0
    1.8021    3.5842   -4.4735 O   0  0  0  0  0
    3.7523   -0.5284   -2.6329 O   0  0  0  0  0
   -3.0863   -3.8787    2.3821 O   0  0  0  0  0
   -3.5992    1.7264    1.0610 O   0  0  0  0  0
   -2.9616    2.0148   -1.3493 O   0  0  0  0  0
   -2.7685    1.3587   -0.0705 S   0  0  0  0  0
  1  2  1  0  0  0
  3  5  1  0  0  0
  4 14  1  0  0  0
  6 15  1  0  0  0
  7 18  1  0  0  0
  8 12  1  0  0  0
  9 16  1  0  0  0
 10 13  1  0  0  0
 11 17  1  0  0  0
 12 19  1  0  0  0
 13 20  1  0  0  0
 15 22  1  0  0  0
 16 23  1  0  0  0
 17 24  1  0  0  0
 19 25  1  0  0  0
 20 26  1  0  0  0
 21 14  1  0  0  0
 21 22  1  0  0  0
 24 27  1  0  0  0
 33 18  1  0  0  0
 33 23  1  0  0  0
  1  3  2  0  0  0
  2  4  2  0  0  0
  5 14  2  0  0  0
  6  7  2  0  0  0
  8 13  2  0  0  0
  9 12  2  0  0  0
 10 16  2  0  0  0
 11 18  2  0  0  0
 15 17  2  0  0  0
 19 28  2  0  0  0
 20 29  2  0  0  0
 24 30  2  0  0  0
 33 31  2  0  0  0
 33 32  2  0  0  0
M  CHG  4  24   1  25  -1  26  -1  27  -1
M  END
> <rmsd>
0.518940568

$$$$
ZINC58208726


 33 35  0  0  0  0  0  0  0  0999 V2000
    2.5855    2.8050   -2.5922 C   0  0  0  0  0
   -5.4654   -2.2052    0.1975 C   0  0  0  0  0
   -1.2166   -8.2831   -3.3987 C   0  0  0  0  0
    1.8281    3.1092   -1.4612 C   0  0  0  0  0
    3.0745    1.5117   -2.7769 C   0  0  0  0  0
   -5.0080   -3.4056   -0.3462 C   0  0  0  0  0
   -4.6297   -1.0886    0.2245 C   0  0  0  0  0
   -0.7816   -6.9679   -3.1086 C   0  0  0  0  0
    2.0488    0.8271   -0.6994 C   0  0  0  0  0
   -2.8794   -2.3728   -0.8356 C   0  0  0  0  0
   -2.5125   -8.3655   -2.9451 C   0  0  0  0  0
    1.5597    2.1204   -0.5147 C   0  0  0  0  0
    2.8063    0.5229   -1.8305 C   0  0  0  0  0
   -3.7150   -3.4894   -0.8627 C   0  0  0  0  0
   -3.3368   -1.1724   -0.2920 C   0  0  0  0  0
   -1.8428   -6.3403   -2.4988 C   0  0  0  0  0
   -1.9982   -4.9738   -1.9715 C   0  0  0  0  0
   -2.7916    1.2086    0.2357 C   0  0  0  0  0
   -1.6420    2.1601    0.0929 C   0  0  0  0  0
    1.5127    2.2246    2.0109 C   0  0  0  0  0
    2.0648   -2.0225   -3.8810 C   0  0  0  0  0
    0.7397    2.4517    0.7134 C   0  0  0  0  0
    3.2773   -0.7265   -2.0100 N   0  0  0  0  0
   -3.2578   -4.6904   -1.4061 N   0  0  0  0  0
   -2.4899   -0.0404   -0.2641 N   0  0  0  0  0
   -0.5036    1.7171    0.7273 N   0  0  0  0  0
   -1.0881   -4.1527   -2.0640 O   0  0  0  0  0
   -3.7994    1.6417    0.7690 O   0  0  0  0  0
   -1.8190    3.1783   -0.5564 O   0  0  0  0  0
    0.9839   -1.8411   -1.5779 O   0  0  0  0  0
    2.9671   -3.2897   -1.8595 O   0  0  0  0  0
   -2.9019   -7.1855   -2.3953 O   0  0  0  0  0
    2.3301   -2.0018   -2.1201 S   0  0  0  0  0
  1  5  1  0  0  0
  2  6  1  0  0  0
  3  8  1  0  0  0
  4 12  1  0  0  0
  7 15  1  0  0  0
  9 13  1  0  0  0
 10 14  1  0  0  0
 11 32  1  0  0  0
 13 23  1  0  0  0
 14 24  1  0  0  0
 15 25  1  0  0  0
 16 17  1  0  0  0
 16 32  1  0  0  0
 17 24  1  0  0  0
 18 19  1  0  0  0
 18 25  1  0  0  0
 19 26  1  0  0  0
 20 22  1  0  0  0
 21 33  1  0  0  0
 22 12  1  0  0  0
 22 26  1  0  0  0
 33 23  1  0  0  0
  1  4  2  0  0  0
  2  7  2  0  0  0
  3 11  2  0  0  0
  5 13  2  0  0  0
  6 14  2  0  0  0
  8 16  2  0  0  0
  9 12  2  0  0  0
 10 15  2  0  0  0
 17 27  2  0  0  0
 18 28  2  0  0  0
 19 29  2  0  0  0
 33 30  2  0  0  0
 33 31  2  0  0  0
M  CHG  1  23  -1
M  END
> <rmsd>
0.606816292

$$$$
ZINC58208726


 33 35  0  0  0  0  0  0  0  0999 V2000
    2.5860    2.8052   -2.5919 C   0  0  0  0  0
   -5.4649   -2.2051    0.1976 C   0  0  0  0  0
   -2.3252   -8.9092   -2.9476 C   0  0  0  0  0
    1.8286    3.1094   -1.4608 C   0  0  0  0  0
    3.0751    1.5120   -2.7766 C   0  0  0  0  0
   -5.0074   -3.4054   -0.3462 C   0  0  0  0  0
   -4.6292   -1.0885    0.2247 C   0  0  0  0  0
   -3.4828   -8.3262   -2.3789 C   0  0  0  0  0
    2.0493    0.8273   -0.6991 C   0  0  0  0  0
   -2.8789   -2.3726   -0.8355 C   0  0  0  0  0
   -1.3767   -7.9138   -2.9881 C   0  0  0  0  0
    1.5602    2.1205   -0.5144 C   0  0  0  0  0
    2.8068    0.5231   -1.8302 C   0  0  0  0  0
   -3.7145   -3.4892   -0.8626 C   0  0  0  0  0
   -3.3363   -1.1723   -0.2918 C   0  0  0  0  0
   -3.1591   -7.0162   -2.1122 C   0  0  0  0  0
   -3.9425   -5.9164   -1.5237 C   0  0  0  0  0
   -2.7911    1.2087    0.2359 C   0  0  0  0  0
   -1.6415    2.1602    0.0932 C   0  0  0  0  0
    1.5131    2.2247    2.0113 C   0  0  0  0  0
    2.0654   -2.0223   -3.8807 C   0  0  0  0  0
    0.7402    2.4518    0.7137 C   0  0  0  0  0
    3.2779   -0.7263   -2.0097 N   0  0  0  0  0
   -3.2573   -4.6902   -1.4060 N   0  0  0  0  0
   -2.4894   -0.0402   -0.2639 N   0  0  0  0  0
   -0.5031    1.7172    0.7276 N   0  0  0  0  0
   -5.0967   -6.0961   -1.1410 O   0  0  0  0  0
   -3.7990    1.6418    0.7692 O   0  0  0  0  0
   -1.8185    3.1784   -0.5561 O   0  0  0  0  0
    0.9844   -1.8409   -1.5777 O   0  0  0  0  0
    2.9676   -3.2895   -1.8592 O   0  0  0  0  0
   -1.8770   -6.7568   -2.4806 O   0  0  0  0  0
    2.3306   -2.0016   -2.1198 S   0  0  0  0  0
  1  5  1  0  0  0
  2  6  1  0  0  0
  3  8  1  0  0  0
  4 12  1  0  0  0
  7 15  1  0  0  0
  9 13  1  0  0  0
 10 14  1  0  0  0
 11 32  1  0  0  0
 13 23  1  0  0  0
 14 24  1  0  0  0
 15 25  1  0  0  0
 16 17  1  0  0  0
 16 32  1  0  0  0
 17 24  1  0  0  0
 18 19  1  0  0  0
 18 25  1  0  0  0
 19 26  1  0  0  0
 20 22  1  0  0  0
 21 33  1  0  0  0
 22 12  1  0  0  0
 22 26  1  0  0  0
 33 23  1  0  0  0
  1  4  2  0  0  0
  2  7  2  0  0  0
  3 11  2  0  0  0
  5 13  2  0  0  0
  6 14  2  0  0  0
  8 16  2  0  0  0
  9 12  2  0  0  0
 10 15  2  0  0  0
 17 27  2  0  0  0
 18 28  2  0  0  0
 19 29  2  0  0  0
 33 30  2  0  0  0
 33 31  2  0  0  0
M  CHG  1  23  -1
M  END
> <rmsd>
0.606752753

$$$$
ZINC58208726


 33 35  0  0  0  0  0  0  0  0999 V2000
    2.5857    2.8052   -2.5919 C   0  0  0  0  0
   -5.4652   -2.2051    0.1976 C   0  0  0  0  0
   -1.2163   -8.2829   -3.3987 C   0  0  0  0  0
    1.8283    3.1094   -1.4609 C   0  0  0  0  0
    3.0747    1.5120   -2.7766 C   0  0  0  0  0
   -5.0078   -3.4054   -0.3462 C   0  0  0  0  0
   -4.6296   -1.0885    0.2246 C   0  0  0  0  0
   -0.7813   -6.9677   -3.1086 C   0  0  0  0  0
    2.0490    0.8273   -0.6991 C   0  0  0  0  0
   -2.8792   -2.3726   -0.8355 C   0  0  0  0  0
   -2.5122   -8.3653   -2.9451 C   0  0  0  0  0
    1.5599    2.1205   -0.5144 C   0  0  0  0  0
    2.8065    0.5231   -1.8303 C   0  0  0  0  0
   -3.7148   -3.4892   -0.8627 C   0  0  0  0  0
   -3.3366   -1.1723   -0.2919 C   0  0  0  0  0
   -1.8425   -6.3401   -2.4988 C   0  0  0  0  0
   -1.9980   -4.9736   -1.9714 C   0  0  0  0  0
   -2.7915    1.2087    0.2358 C   0  0  0  0  0
   -1.6418    2.1602    0.0931 C   0  0  0  0  0
    1.5128    2.2247    2.0112 C   0  0  0  0  0
    1.4476   -2.4352   -2.6275 C   0  0  0  0  0
    0.7398    2.4518    0.7137 C   0  0  0  0  0
    3.2775   -0.7263   -2.0098 N   0  0  0  0  0
   -3.2576   -4.6902   -1.4060 N   0  0  0  0  0
   -2.4898   -0.0402   -0.2640 N   0  0  0  0  0
   -0.5035    1.7172    0.7275 N   0  0  0  0  0
   -1.0879   -4.1526   -2.0640 O   0  0  0  0  0
   -3.7993    1.6418    0.7692 O   0  0  0  0  0
   -1.8188    3.1784   -0.5562 O   0  0  0  0  0
    3.8041   -2.7299   -3.5580 O   0  0  0  0  0
    2.3909   -0.9003   -4.4331 O   0  0  0  0  0
   -2.9016   -7.1853   -2.3953 O   0  0  0  0  0
    2.8966   -1.6229   -3.2694 S   0  0  0  0  0
  1  5  1  0  0  0
  2  6  1  0  0  0
  3  8  1  0  0  0
  4 12  1  0  0  0
  7 15  1  0  0  0
  9 13  1  0  0  0
 10 14  1  0  0  0
 11 32  1  0  0  0
 13 23  1  0  0  0
 14 24  1  0  0  0
 15 25  1  0  0  0
 16 17  1  0  0  0
 16 32  1  0  0  0
 17 24  1  0  0  0
 18 19  1  0  0  0
 18 25  1  0  0  0
 19 26  1  0  0  0
 20 22  1  0  0  0
 21 33  1  0  0  0
 22 12  1  0  0  0
 22 26  1  0  0  0
 33 23  1  0  0  0
  1  4  2  0  0  0
  2  7  2  0  0  0
  3 11  2  0  0  0
  5 13  2  0  0  0
  6 14  2  0  0  0
  8 16  2  0  0  0
  9 12  2  0  0  0
 10 15  2  0  0  0
 17 27  2  0  0  0
 18 28  2  0  0  0
 19 29  2  0  0  0
 33 30  2  0  0  0
 33 31  2  0  0  0
M  CHG  1  23  -1
M  END
> <rmsd>
0.606752634

$$$$
ZINC58208726


 33 35  0  0  0  0  0  0  0  0999 V2000
    2.5861    2.8053   -2.5917 C   0  0  0  0  0
   -5.4648   -2.2049    0.1981 C   0  0  0  0  0
   -2.3252   -8.9090   -2.9471 C   0  0  0  0  0
    1.8287    3.1096   -1.4607 C   0  0  0  0  0
    3.0751    1.5121   -2.7764 C   0  0  0  0  0
   -5.0074   -3.4052   -0.3457 C   0  0  0  0  0
   -4.6291   -1.0883    0.2251 C   0  0  0  0  0
   -3.4828   -8.3261   -2.3784 C   0  0  0  0  0
    2.0495    0.8275   -0.6988 C   0  0  0  0  0
   -2.8788   -2.3724   -0.8351 C   0  0  0  0  0
   -1.3767   -7.9137   -2.9876 C   0  0  0  0  0
    1.5603    2.1207   -0.5142 C   0  0  0  0  0
    2.8069    0.5232   -1.8300 C   0  0  0  0  0
   -3.7144   -3.4890   -0.8622 C   0  0  0  0  0
   -3.3362   -1.1721   -0.2914 C   0  0  0  0  0
   -3.1590   -7.0161   -2.1117 C   0  0  0  0  0
   -3.9424   -5.9163   -1.5232 C   0  0  0  0  0
   -2.7910    1.2090    0.2362 C   0  0  0  0  0
   -1.6414    2.1604    0.0935 C   0  0  0  0  0
    1.5133    2.2249    2.0115 C   0  0  0  0  0
    1.4480   -2.4351   -2.6271 C   0  0  0  0  0
    0.7403    2.4520    0.7140 C   0  0  0  0  0
    3.2779   -0.7262   -2.0095 N   0  0  0  0  0
   -3.2572   -4.6900   -1.4055 N   0  0  0  0  0
   -2.4893   -0.0400   -0.2636 N   0  0  0  0  0
   -0.5030    1.7175    0.7278 N   0  0  0  0  0
   -5.0966   -6.0959   -1.1405 O   0  0  0  0  0
   -3.7988    1.6420    0.7696 O   0  0  0  0  0
   -1.8183    3.1786   -0.5559 O   0  0  0  0  0
    3.8045   -2.7298   -3.5577 O   0  0  0  0  0
    2.3913   -0.9002   -4.4328 O   0  0  0  0  0
   -1.8770   -6.7566   -2.4801 O   0  0  0  0  0
    2.8970   -1.6228   -3.2691 S   0  0  0  0  0
  1  5  1  0  0  0
  2  6  1  0  0  0
  3  8  1  0  0  0
  4 12  1  0  0  0
  7 15  1  0  0  0
  9 13  1  0  0  0
 10 14  1  0  0  0
 11 32  1  0  0  0
 13 23  1  0  0  0
 14 24  1  0  0  0
 15 25  1  0  0  0
 16 17  1  0  0  0
 16 32  1  0  0  0
 17 24  1  0  0  0
 18 19  1  0  0  0
 18 25  1  0  0  0
 19 26  1  0  0  0
 20 22  1  0  0  0
 21 33  1  0  0  0
 22 12  1  0  0  0
 22 26  1  0  0  0
 33 23  1  0  0  0
  1  4  2  0  0  0
  2  7  2  0  0  0
  3 11  2  0  0  0
  5 13  2  0  0  0
  6 14  2  0  0  0
  8 16  2  0  0  0
  9 12  2  0  0  0
 10 15  2  0  0  0
 17 27  2  0  0  0
 18 28  2  0  0  0
 19 29  2  0  0  0
 33 30  2  0  0  0
 33 31  2  0  0  0
M  CHG  1  23  -1
M  END
> <rmsd>
0.606816173

$$$$
ZINC58208726


 33 35  0  0  0  0  0  0  0  0999 V2000
    2.5859    2.8054   -2.5916 C   0  0  0  0  0
   -3.7137   -3.4889   -0.8637 C   0  0  0  0  0
  -10.8278   -1.2412    2.6380 C   0  0  0  0  0
    1.8284    3.1096   -1.4606 C   0  0  0  0  0
    3.0749    1.5122   -2.7763 C   0  0  0  0  0
   -5.0068   -3.4058   -0.3476 C   0  0  0  0  0
   -2.8785   -2.3721   -0.8358 C   0  0  0  0  0
   -9.6828   -0.4442    2.4000 C   0  0  0  0  0
    2.0492    0.8275   -0.6989 C   0  0  0  0  0
   -4.6296   -1.0889    0.2245 C   0  0  0  0  0
  -10.5299   -2.4928    2.1516 C   0  0  0  0  0
    1.5600    2.1207   -0.5142 C   0  0  0  0  0
    2.8066    0.5233   -1.8300 C   0  0  0  0  0
   -5.4649   -2.2059    0.1965 C   0  0  0  0  0
   -3.3365   -1.1721   -0.2917 C   0  0  0  0  0
   -8.7665   -1.2657    1.7854 C   0  0  0  0  0
   -7.3997   -1.0128    1.2981 C   0  0  0  0  0
   -2.7913    1.2089    0.2360 C   0  0  0  0  0
   -1.6417    2.1604    0.0934 C   0  0  0  0  0
    1.5129    2.2249    2.0115 C   0  0  0  0  0
    2.0653   -2.0220   -3.8806 C   0  0  0  0  0
    0.7399    2.4520    0.7139 C   0  0  0  0  0
    3.2777   -0.7261   -2.0095 N   0  0  0  0  0
   -6.7586   -2.1231    0.7123 N   0  0  0  0  0
   -2.4896   -0.0400   -0.2638 N   0  0  0  0  0
   -0.5033    1.7174    0.7278 N   0  0  0  0  0
   -6.8718    0.0883    1.4380 O   0  0  0  0  0
   -3.7992    1.6420    0.7694 O   0  0  0  0  0
   -1.8187    3.1786   -0.5560 O   0  0  0  0  0
    0.9843   -1.8407   -1.5775 O   0  0  0  0  0
    2.9674   -3.2893   -1.8591 O   0  0  0  0  0
   -9.2753   -2.5162    1.6303 O   0  0  0  0  0
    2.3305   -2.0014   -2.1197 S   0  0  0  0  0
  1  5  1  0  0  0
  2  6  1  0  0  0
  3  8  1  0  0  0
  4 12  1  0  0  0
  7 15  1  0  0  0
  9 13  1  0  0  0
 10 14  1  0  0  0
 11 32  1  0  0  0
 13 23  1  0  0  0
 14 24  1  0  0  0
 15 25  1  0  0  0
 16 17  1  0  0  0
 16 32  1  0  0  0
 17 24  1  0  0  0
 18 19  1  0  0  0
 18 25  1  0  0  0
 19 26  1  0  0  0
 20 22  1  0  0  0
 21 33  1  0  0  0
 22 12  1  0  0  0
 22 26  1  0  0  0
 33 23  1  0  0  0
  1  4  2  0  0  0
  2  7  2  0  0  0
  3 11  2  0  0  0
  5 13  2  0  0  0
  6 14  2  0  0  0
  8 16  2  0  0  0
  9 12  2  0  0  0
 10 15  2  0  0  0
 17 27  2  0  0  0
 18 28  2  0  0  0
 19 29  2  0  0  0
 33 30  2  0  0  0
 33 31  2  0  0  0
M  CHG  1  23  -1
M  END
> <rmsd>
0.606817603

$$$$
ZINC58208726


 33 35  0  0  0  0  0  0  0  0999 V2000
    2.5859    2.8055   -2.5912 C   0  0  0  0  0
   -3.7137   -3.4887   -0.8631 C   0  0  0  0  0
  -11.1041   -2.4669    2.1420 C   0  0  0  0  0
    1.8285    3.1098   -1.4602 C   0  0  0  0  0
    3.0749    1.5123   -2.7759 C   0  0  0  0  0
   -5.0067   -3.4056   -0.3470 C   0  0  0  0  0
   -2.8784   -2.3719   -0.8352 C   0  0  0  0  0
  -10.2045   -3.3946    1.5648 C   0  0  0  0  0
    2.0492    0.8277   -0.6984 C   0  0  0  0  0
   -4.6296   -1.0887    0.2250 C   0  0  0  0  0
  -10.4187   -1.2781    2.2364 C   0  0  0  0  0
    1.5601    2.1209   -0.5137 C   0  0  0  0  0
    2.8067    0.5235   -1.8295 C   0  0  0  0  0
   -5.4649   -2.2057    0.1971 C   0  0  0  0  0
   -3.3364   -1.1719   -0.2912 C   0  0  0  0  0
   -9.0335   -2.7065    1.3474 C   0  0  0  0  0
   -7.7436   -3.1293    0.7755 C   0  0  0  0  0
   -2.7913    1.2091    0.2366 C   0  0  0  0  0
   -1.6417    2.1606    0.0939 C   0  0  0  0  0
    1.5130    2.2251    2.0119 C   0  0  0  0  0
    2.0653   -2.0219   -3.8801 C   0  0  0  0  0
    0.7400    2.4522    0.7144 C   0  0  0  0  0
    3.2777   -0.7259   -2.0091 N   0  0  0  0  0
   -6.7585   -2.1229    0.7129 N   0  0  0  0  0
   -2.4896   -0.0398   -0.2633 N   0  0  0  0  0
   -0.5033    1.7176    0.7282 N   0  0  0  0  0
   -7.5807   -4.2747    0.3601 O   0  0  0  0  0
   -3.7991    1.6422    0.7699 O   0  0  0  0  0
   -1.8186    3.1788   -0.5555 O   0  0  0  0  0
    0.9843   -1.8405   -1.5770 O   0  0  0  0  0
    2.9675   -3.2891   -1.8586 O   0  0  0  0  0
   -9.1558   -1.4157    1.7539 O   0  0  0  0  0
    2.3305   -2.0012   -2.1192 S   0  0  0  0  0
  1  5  1  0  0  0
  2  6  1  0  0  0
  3  8  1  0  0  0
  4 12  1  0  0  0
  7 15  1  0  0  0
  9 13  1  0  0  0
 10 14  1  0  0  0
 11 32  1  0  0  0
 13 23  1  0  0  0
 14 24  1  0  0  0
 15 25  1  0  0  0
 16 17  1  0  0  0
 16 32  1  0  0  0
 17 24  1  0  0  0
 18 19  1  0  0  0
 18 25  1  0  0  0
 19 26  1  0  0  0
 20 22  1  0  0  0
 21 33  1  0  0  0
 22 12  1  0  0  0
 22 26  1  0  0  0
 33 23  1  0  0  0
  1  4  2  0  0  0
  2  7  2  0  0  0
  3 11  2  0  0  0
  5 13  2  0  0  0
  6 14  2  0  0  0
  8 16  2  0  0  0
  9 12  2  0  0  0
 10 15  2  0  0  0
 17 27  2  0  0  0
 18 28  2  0  0  0
 19 29  2  0  0  0
 33 30  2  0  0  0
 33 31  2  0  0  0
M  CHG  1  23  -1
M  END
> <rmsd>
0.606752753

$$$$
ZINC32962173


 33 36  0  0  0  0  0  0  0  0999 V2000
   -3.2447   -2.5886    0.4339 C   0  0  0  0  0
   -2.4212   -2.2385   -1.8102 C   0  0  0  0  0
    1.0206    2.8833   -2.1914 C   0  0  0  0  0
   -0.0388    2.7665   -1.2915 C   0  0  0  0  0
   -3.2077   -1.2131    0.6621 C   0  0  0  0  0
   -2.3842   -0.8629   -1.5822 C   0  0  0  0  0
    0.9952    0.8065   -0.3290 C   0  0  0  0  0
    2.0544    0.9233   -1.2290 C   0  0  0  0  0
   -2.8514   -3.1014   -0.8023 C   0  0  0  0  0
    2.0671    1.9617   -2.1602 C   0  0  0  0  0
   -0.0514    1.7282   -0.3602 C   0  0  0  0  0
   -2.7774   -0.3503   -0.3459 C   0  0  0  0  0
    3.1485   -0.0645   -1.1746 C   0  0  0  0  0
    2.8200    4.5341   -5.2015 C   0  0  0  0  0
   -2.5295   -7.0586   -2.6542 C   0  0  0  0  0
    4.0949    4.8485   -4.4160 C   0  0  0  0  0
    2.8882    3.2653   -6.0539 C   0  0  0  0  0
   -1.5460   -6.6874   -1.5486 C   0  0  0  0  0
   -3.9190   -6.4885   -2.3863 C   0  0  0  0  0
    4.0870    4.3899   -2.9579 C   0  0  0  0  0
    2.2727    2.0213   -5.4134 C   0  0  0  0  0
   -1.4913   -5.1771   -1.3260 C   0  0  0  0  0
   -3.8760   -4.9772   -2.1678 C   0  0  0  0  0
    4.3116    2.8925   -2.7601 C   0  0  0  0  0
    3.1381    1.3629   -4.3413 C   0  0  0  0  0
   -2.8894   -4.5942   -1.0495 C   0  0  0  0  0
    3.1198    2.0963   -3.0714 N   0  0  0  0  0
   -1.1359    1.6089    0.5607 N   0  0  0  0  0
    3.0524   -1.1309   -1.8876 O   0  0  0  0  0
    4.1591    0.1758   -0.4159 O   0  0  0  0  0
   -3.6867    1.6730    0.9978 O   0  0  0  0  0
   -2.8588    2.0599   -1.3397 O   0  0  0  0  0
   -2.7299    1.3954   -0.0572 S   0  0  0  0  0
  1  5  1  0  0  0
  2  9  1  0  0  0
  3 10  1  0  0  0
  4 11  1  0  0  0
  6 12  1  0  0  0
  7  8  1  0  0  0
  8 13  1  0  0  0
 10 27  1  0  0  0
 11 28  1  0  0  0
 13 29  1  0  0  0
 14 16  1  0  0  0
 14 17  1  0  0  0
 15 18  1  0  0  0
 15 19  1  0  0  0
 16 20  1  0  0  0
 17 21  1  0  0  0
 18 22  1  0  0  0
 19 23  1  0  0  0
 20 24  1  0  0  0
 21 25  1  0  0  0
 22 26  1  0  0  0
 23 26  1  0  0  0
 24 27  1  0  0  0
 25 27  1  0  0  0
 26  9  1  0  0  0
 33 12  1  0  0  0
 33 28  1  0  0  0
  1  9  2  0  0  0
  2  6  2  0  0  0
  3  4  2  0  0  0
  5 12  2  0  0  0
  7 11  2  0  0  0
  8 10  2  0  0  0
 13 30  2  0  0  0
 33 31  2  0  0  0
 33 32  2  0  0  0
M  CHG  1  29  -1
M  END
> <rmsd>
0.707175732

$$$$
ZINC32962173


 33 36  0  0  0  0  0  0  0  0999 V2000
   -3.5400   -2.5662    0.5400 C   0  0  0  0  0
   -2.9067   -2.3073   -1.7770 C   0  0  0  0  0
    0.8684    2.5240   -2.5716 C   0  0  0  0  0
   -0.1074    2.5009   -1.5752 C   0  0  0  0  0
   -3.3758   -1.1953    0.7380 C   0  0  0  0  0
   -2.7425   -0.9364   -1.5791 C   0  0  0  0  0
    0.8582    0.4768   -0.6765 C   0  0  0  0  0
    1.8340    0.4999   -1.6730 C   0  0  0  0  0
   -3.3054   -3.1222   -0.7176 C   0  0  0  0  0
    1.8391    1.5235   -2.6205 C   0  0  0  0  0
   -0.1124    1.4774   -0.6276 C   0  0  0  0  0
   -2.9771   -0.3804   -0.3214 C   0  0  0  0  0
    2.8489   -0.5700   -1.7020 C   0  0  0  0  0
    2.4986    3.9942   -5.7661 C   0  0  0  0  0
   -3.4650   -7.1134   -2.5173 C   0  0  0  0  0
    3.8622    4.2165   -5.1083 C   0  0  0  0  0
    2.3884    2.7143   -6.5973 C   0  0  0  0  0
   -2.3563   -6.8079   -1.5149 C   0  0  0  0  0
   -4.7750   -6.4329   -2.1321 C   0  0  0  0  0
    3.9561    3.7765   -3.6475 C   0  0  0  0  0
    1.7418    1.5298   -5.8794 C   0  0  0  0  0
   -2.1647   -5.3042   -1.3265 C   0  0  0  0  0
   -4.5954   -4.9273   -1.9469 C   0  0  0  0  0
    4.0822    2.2685   -3.4435 C   0  0  0  0  0
    2.6510    0.8178   -4.8801 C   0  0  0  0  0
   -3.4814   -4.6102   -0.9323 C   0  0  0  0  0
    2.8087    1.5647   -3.6279 N   0  0  0  0  0
   -1.1115    1.4541    0.3921 N   0  0  0  0  0
    2.6044   -1.6336   -2.3830 O   0  0  0  0  0
    3.9419   -0.4011   -1.0450 O   0  0  0  0  0
   -3.5973    1.7231    1.0630 O   0  0  0  0  0
   -2.9656    2.0173   -1.3482 O   0  0  0  0  0
   -2.7683    1.3593   -0.0710 S   0  0  0  0  0
  1  5  1  0  0  0
  2  9  1  0  0  0
  3 10  1  0  0  0
  4 11  1  0  0  0
  6 12  1  0  0  0
  7  8  1  0  0  0
  8 13  1  0  0  0
 10 27  1  0  0  0
 11 28  1  0  0  0
 13 29  1  0  0  0
 14 16  1  0  0  0
 14 17  1  0  0  0
 15 18  1  0  0  0
 15 19  1  0  0  0
 16 20  1  0  0  0
 17 21  1  0  0  0
 18 22  1  0  0  0
 19 23  1  0  0  0
 20 24  1  0  0  0
 21 25  1  0  0  0
 22 26  1  0  0  0
 23 26  1  0  0  0
 24 27  1  0  0  0
 25 27  1  0  0  0
 26  9  1  0  0  0
 33 12  1  0  0  0
 33 28  1  0  0  0
  1  9  2  0  0  0
  2  6  2  0  0  0
  3  4  2  0  0  0
  5 12  2  0  0  0
  7 11  2  0  0  0
  8 10  2  0  0  0
 13 30  2  0  0  0
 33 31  2  0  0  0
 33 32  2  0  0  0
M  CHG  1  29  -1
M  END
> <rmsd>
0.526093245

$$$$
ZINC12581392


 31 32  0  0  0  0  0  0  0  0999 V2000
   -4.1141   -1.0455    0.4679 C   0  0  0  0  0
   -4.3347   -2.4061    0.6816 C   0  0  0  0  0
    1.5467   -2.4787    1.8435 C   0  0  0  0  0
    2.2035   -1.3351   -0.1806 C   0  0  0  0  0
    3.4345   -3.2759    0.5638 C   0  0  0  0  0
   -3.0195   -2.9270   -1.2771 C   0  0  0  0  0
    1.3553   -1.4506    0.9207 C   0  0  0  0  0
   -3.3463   -0.6256   -0.6184 C   0  0  0  0  0
    2.5863   -3.3915    1.6652 C   0  0  0  0  0
    3.2431   -2.2477   -0.3591 C   0  0  0  0  0
   -3.7874   -3.3468   -0.1908 C   0  0  0  0  0
   -2.7991   -1.5663   -1.4908 C   0  0  0  0  0
    0.2479   -0.4781    1.1109 C   0  0  0  0  0
   -3.6246    1.8048   -0.0201 C   0  0  0  0  0
   -0.6866    2.6708   -0.3119 C   0  0  0  0  0
   -3.1693    3.1486   -0.5775 C   0  0  0  0  0
   -1.8349    3.6183   -0.0069 C   0  0  0  0  0
   -3.1421    0.7622   -0.8062 N   0  0  0  0  0
    0.4475    0.7726    0.5580 N   0  0  0  0  0
   -0.5456    1.7140    0.6774 N   0  0  0  0  0
    2.7815   -4.4378    2.6052 N   0  0  0  0  0
    4.1066   -2.1300   -1.4803 N   0  0  0  0  0
    2.0076   -4.5234    3.5890 O   0  0  0  0  0
    3.9169   -1.1978   -2.2984 O   0  0  0  0  0
   -0.7637   -0.8282    1.7134 O   0  0  0  0  0
   -4.3180    1.7177    0.9879 O   0  0  0  0  0
    0.0143    2.7596   -1.3165 O   0  0  0  0  0
    3.7223   -5.2485    2.4260 O   0  0  0  0  0
    5.0359   -2.9611   -1.6219 O   0  0  0  0  0
   -4.0600   -5.0254    0.0738 Cl  0  0  0  0  0
   -1.8422   -1.0895   -2.8481 Cl  0  0  0  0  0
  1  2  1  0  0  0
  3  7  1  0  0  0
  4 10  1  0  0  0
  5  9  1  0  0  0
  6 11  1  0  0  0
  7 13  1  0  0  0
  8 12  1  0  0  0
  8 18  1  0  0  0
  9 21  1  0  0  0
 10 22  1  0  0  0
 11 30  1  0  0  0
 12 31  1  0  0  0
 13 19  1  0  0  0
 14 18  1  0  0  0
 15 20  1  0  0  0
 16 14  1  0  0  0
 16 17  1  0  0  0
 17 15  1  0  0  0
 19 20  1  0  0  0
 21 23  1  0  0  0
 22 24  1  0  0  0
  1  8  2  0  0  0
  2 11  2  0  0  0
  3  9  2  0  0  0
  4  7  2  0  0  0
  5 10  2  0  0  0
  6 12  2  0  0  0
 13 25  2  0  0  0
 14 26  2  0  0  0
 15 27  2  0  0  0
 21 28  2  0  0  0
 22 29  2  0  0  0
M  CHG  4  21   1  22   1  23  -1  24  -1
M  END
> <rmsd>
0.475385785

$$$$
ZINC64843419


 33 36  0  0  0  0  0  0  0  0999 V2000
   -3.5705   -2.5604    0.5578 C   0  0  0  0  0
   -2.9166   -2.3216   -1.7557 C   0  0  0  0  0
   -3.3977   -1.1896    0.7483 C   0  0  0  0  0
   -2.7437   -0.9507   -1.5652 C   0  0  0  0  0
    0.8678    0.4566   -0.6597 C   0  0  0  0  0
   -0.0606    2.4520   -1.5613 C   0  0  0  0  0
    1.8373    0.4939   -1.6557 C   0  0  0  0  0
   -3.3299   -3.1266   -0.6941 C   0  0  0  0  0
   -0.1029    1.4505   -0.6048 C   0  0  0  0  0
   -2.9843   -0.3846   -0.3132 C   0  0  0  0  0
    1.7927    1.5380   -2.5654 C   0  0  0  0  0
    2.8646   -0.5604   -1.7120 C   0  0  0  0  0
    2.4602    4.0175   -5.7023 C   0  0  0  0  0
   -3.5048   -7.1281   -2.4691 C   0  0  0  0  0
    3.8220    4.2379   -5.0405 C   0  0  0  0  0
    2.3521    2.7398   -6.5374 C   0  0  0  0  0
   -2.4019   -6.8243   -1.4596 C   0  0  0  0  0
   -4.8128   -6.4354   -2.0990 C   0  0  0  0  0
    3.9122    3.7939   -3.5806 C   0  0  0  0  0
    1.7039    1.5533   -5.8244 C   0  0  0  0  0
   -2.2005   -5.3208   -1.2796 C   0  0  0  0  0
   -4.6234   -4.9300   -1.9221 C   0  0  0  0  0
    4.0379    2.2853   -3.3805 C   0  0  0  0  0
    2.6104    0.8386   -4.8248 C   0  0  0  0  0
   -3.5153   -4.6146   -0.9006 C   0  0  0  0  0
    0.8654    2.5216   -2.5437 N   0  0  0  0  0
    2.7650    1.5820   -3.5701 N   0  0  0  0  0
   -1.1096    1.4394    0.4037 N   0  0  0  0  0
    2.6286   -1.6176   -2.4075 O   0  0  0  0  0
    3.9632   -0.3889   -1.0633 O   0  0  0  0  0
   -3.6012    1.7328    1.0513 O   0  0  0  0  0
   -2.9450    2.0059   -1.3558 O   0  0  0  0  0
   -2.7645    1.3550   -0.0723 S   0  0  0  0  0
  1  3  1  0  0  0
  2  8  1  0  0  0
  4 10  1  0  0  0
  5  9  1  0  0  0
  6 26  1  0  0  0
  7 11  1  0  0  0
  7 12  1  0  0  0
  9 28  1  0  0  0
 11 27  1  0  0  0
 12 29  1  0  0  0
 13 15  1  0  0  0
 13 16  1  0  0  0
 14 17  1  0  0  0
 14 18  1  0  0  0
 15 19  1  0  0  0
 16 20  1  0  0  0
 17 21  1  0  0  0
 18 22  1  0  0  0
 19 23  1  0  0  0
 20 24  1  0  0  0
 21 25  1  0  0  0
 22 25  1  0  0  0
 23 27  1  0  0  0
 24 27  1  0  0  0
 25  8  1  0  0  0
 33 10  1  0  0  0
 33 28  1  0  0  0
  1  8  2  0  0  0
  2  4  2  0  0  0
  3 10  2  0  0  0
  5  7  2  0  0  0
  6  9  2  0  0  0
 11 26  2  0  0  0
 12 30  2  0  0  0
 33 31  2  0  0  0
 33 32  2  0  0  0
M  CHG  1  29  -1
M  END
> <rmsd>
0.510477483

$$$$
ZINC64843419


 33 36  0  0  0  0  0  0  0  0999 V2000
   -3.2796   -2.5849    0.4516 C   0  0  0  0  0
   -2.4335   -2.2552   -1.7873 C   0  0  0  0  0
   -3.2326   -1.2085    0.6721 C   0  0  0  0  0
   -2.3866   -0.8786   -1.5667 C   0  0  0  0  0
    1.0041    0.7846   -0.3098 C   0  0  0  0  0
    0.0110    2.7189   -1.2734 C   0  0  0  0  0
    2.0563    0.9140   -1.2094 C   0  0  0  0  0
   -2.8800   -3.1083   -0.7781 C   0  0  0  0  0
   -0.0420    1.7002   -0.3359 C   0  0  0  0  0
   -2.7861   -0.3553   -0.3370 C   0  0  0  0  0
    2.0154    1.9678   -2.1080 C   0  0  0  0  0
    3.1634   -0.0573   -1.1799 C   0  0  0  0  0
    2.7769    4.5472   -5.1413 C   0  0  0  0  0
   -2.5762   -7.0789   -2.6044 C   0  0  0  0  0
    4.0497    4.8593   -4.3517 C   0  0  0  0  0
    2.8470    3.2802   -5.9965 C   0  0  0  0  0
   -1.5993   -6.7097   -1.4922 C   0  0  0  0  0
   -3.9630   -6.4953   -2.3519 C   0  0  0  0  0
    4.0379    4.3974   -2.8947 C   0  0  0  0  0
    2.2297    2.0349   -5.3606 C   0  0  0  0  0
   -1.5334   -5.1987   -1.2779 C   0  0  0  0  0
   -3.9089   -4.9832   -2.1418 C   0  0  0  0  0
    4.2616    2.8995   -2.6998 C   0  0  0  0  0
    3.0921    1.3739   -4.2877 C   0  0  0  0  0
   -2.9287   -4.6022   -1.0170 C   0  0  0  0  0
    1.0162    2.8769   -2.1634 N   0  0  0  0  0
    3.0706    2.1043   -3.0160 N   0  0  0  0  0
   -1.1344    1.5938    0.5730 N   0  0  0  0  0
    3.0764   -1.1167   -1.9058 O   0  0  0  0  0
    4.1801    0.1862   -0.4287 O   0  0  0  0  0
   -3.6907    1.6837    0.9859 O   0  0  0  0  0
   -2.8364    2.0496   -1.3455 O   0  0  0  0  0
   -2.7260    1.3915   -0.0578 S   0  0  0  0  0
  1  3  1  0  0  0
  2  8  1  0  0  0
  4 10  1  0  0  0
  5  9  1  0  0  0
  6 26  1  0  0  0
  7 11  1  0  0  0
  7 12  1  0  0  0
  9 28  1  0  0  0
 11 27  1  0  0  0
 12 29  1  0  0  0
 13 15  1  0  0  0
 13 16  1  0  0  0
 14 17  1  0  0  0
 14 18  1  0  0  0
 15 19  1  0  0  0
 16 20  1  0  0  0
 17 21  1  0  0  0
 18 22  1  0  0  0
 19 23  1  0  0  0
 20 24  1  0  0  0
 21 25  1  0  0  0
 22 25  1  0  0  0
 23 27  1  0  0  0
 24 27  1  0  0  0
 25  8  1  0  0  0
 33 10  1  0  0  0
 33 28  1  0  0  0
  1  8  2  0  0  0
  2  4  2  0  0  0
  3 10  2  0  0  0
  5  7  2  0  0  0
  6  9  2  0  0  0
 11 26  2  0  0  0
 12 30  2  0  0  0
 33 31  2  0  0  0
 33 32  2  0  0  0
M  CHG  1  29  -1
M  END
> <rmsd>
0.689505875

$$$$
ZINC33253617


 33 36  0  0  0  0  0  0  0  0999 V2000
    0.8688    2.5241   -2.5708 C   0  0  0  0  0
   -0.1070    2.5009   -1.5744 C   0  0  0  0  0
    0.8586    0.4766   -0.6760 C   0  0  0  0  0
   -3.3067   -3.1222   -0.7171 C   0  0  0  0  0
   -3.3757   -1.1952    0.7384 C   0  0  0  0  0
   -2.7429   -0.9367   -1.5789 C   0  0  0  0  0
    1.8343    0.4998   -1.6725 C   0  0  0  0  0
   -3.5405   -2.5660    0.5405 C   0  0  0  0  0
   -2.9078   -2.3076   -1.7768 C   0  0  0  0  0
    1.8394    1.5236   -2.6199 C   0  0  0  0  0
   -0.1122    1.4772   -0.6270 C   0  0  0  0  0
   -2.9768   -0.3805   -0.3213 C   0  0  0  0  0
    2.8492   -0.5702   -1.7018 C   0  0  0  0  0
    8.0295    1.0559   -8.4937 C   0  0  0  0  0
    6.6662    0.4133   -8.7253 C   0  0  0  0  0
    8.3389    1.1738   -7.0051 C   0  0  0  0  0
    3.5281    1.0009   -5.9172 C   0  0  0  0  0
    5.1959    1.7730   -4.2135 C   0  0  0  0  0
    2.3912    1.5174   -5.0346 C   0  0  0  0  0
    4.0550    2.2926   -3.3394 C   0  0  0  0  0
    5.5642    1.1412   -7.9689 C   0  0  0  0  0
    7.2308    1.8987   -6.2548 C   0  0  0  0  0
    4.8048    1.8010   -5.6868 C   0  0  0  0  0
   -3.9669   -3.4370    1.6735 C   0  0  0  0  0
   -2.6575   -2.9024   -3.1212 C   0  0  0  0  0
    2.8101    1.5649   -3.6283 N   0  0  0  0  0
   -1.1112    1.4538    0.3926 N   0  0  0  0  0
    5.9159    1.1976   -6.5010 N   0  0  0  0  0
    2.6045   -1.6336   -2.3830 O   0  0  0  0  0
    3.9422   -0.4016   -1.0448 O   0  0  0  0  0
   -3.5969    1.7229    1.0636 O   0  0  0  0  0
   -2.9651    2.0174   -1.3475 O   0  0  0  0  0
   -2.7679    1.3591   -0.0704 S   0  0  0  0  0
  1 10  1  0  0  0
  2 11  1  0  0  0
  3  7  1  0  0  0
  4  9  1  0  0  0
  5  8  1  0  0  0
  6 12  1  0  0  0
  7 13  1  0  0  0
 10 26  1  0  0  0
 11 27  1  0  0  0
 13 29  1  0  0  0
 14 15  1  0  0  0
 14 16  1  0  0  0
 15 21  1  0  0  0
 16 22  1  0  0  0
 17 19  1  0  0  0
 17 23  1  0  0  0
 18 20  1  0  0  0
 18 23  1  0  0  0
 19 26  1  0  0  0
 20 26  1  0  0  0
 21 28  1  0  0  0
 22 28  1  0  0  0
 23 28  1  0  0  0
 24  8  1  0  0  0
 25  9  1  0  0  0
 33 12  1  0  0  0
 33 27  1  0  0  0
  1  2  2  0  0  0
  3 11  2  0  0  0
  4  8  2  0  0  0
  5 12  2  0  0  0
  6  9  2  0  0  0
  7 10  2  0  0  0
 13 30  2  0  0  0
 33 31  2  0  0  0
 33 32  2  0  0  0
M  CHG  2  28   1  29  -1
M  END
> <rmsd>
0.525859177

$$$$
ZINC33253617


 33 36  0  0  0  0  0  0  0  0999 V2000
    1.0212    2.8837   -2.1899 C   0  0  0  0  0
   -0.0382    2.7667   -1.2902 C   0  0  0  0  0
    0.9956    0.8065   -0.3278 C   0  0  0  0  0
   -2.8523   -3.1014   -0.8018 C   0  0  0  0  0
   -3.2075   -1.2129    0.6625 C   0  0  0  0  0
   -2.3842   -0.8633   -1.5819 C   0  0  0  0  0
    2.0549    0.9235   -1.2277 C   0  0  0  0  0
   -3.2451   -2.5885    0.4344 C   0  0  0  0  0
   -2.4217   -2.2388   -1.8100 C   0  0  0  0  0
    2.0677    1.9621   -2.1587 C   0  0  0  0  0
   -0.0511    1.7281   -0.3591 C   0  0  0  0  0
   -2.7770   -0.3503   -0.3457 C   0  0  0  0  0
    3.1490   -0.0644   -1.1733 C   0  0  0  0  0
    8.7949    2.0828   -7.4282 C   0  0  0  0  0
    7.5137    1.3414   -7.7945 C   0  0  0  0  0
    8.9542    2.1964   -5.9159 C   0  0  0  0  0
    4.0916    1.6327   -5.2880 C   0  0  0  0  0
    5.5279    2.4993   -3.4261 C   0  0  0  0  0
    2.8406    2.0435   -4.5106 C   0  0  0  0  0
    4.2734    2.9130   -2.6576 C   0  0  0  0  0
    6.2924    1.9679   -7.1371 C   0  0  0  0  0
    7.7277    2.8196   -5.2651 C   0  0  0  0  0
    5.2746    2.5245   -4.9293 C   0  0  0  0  0
   -3.7052   -3.5107    1.5122 C   0  0  0  0  0
   -2.0016   -2.7874   -3.1315 C   0  0  0  0  0
    3.1218    2.0969   -3.0707 N   0  0  0  0  0
   -1.1357    1.6088    0.5615 N   0  0  0  0  0
    6.5005    2.0239   -5.6420 N   0  0  0  0  0
    3.0530   -1.1306   -1.8866 O   0  0  0  0  0
    4.1595    0.1758   -0.4144 O   0  0  0  0  0
   -3.6864    1.6728    0.9984 O   0  0  0  0  0
   -2.8582    2.0601   -1.3390 O   0  0  0  0  0
   -2.7295    1.3953   -0.0566 S   0  0  0  0  0
  1 10  1  0  0  0
  2 11  1  0  0  0
  3  7  1  0  0  0
  4  9  1  0  0  0
  5  8  1  0  0  0
  6 12  1  0  0  0
  7 13  1  0  0  0
 10 26  1  0  0  0
 11 27  1  0  0  0
 13 29  1  0  0  0
 14 15  1  0  0  0
 14 16  1  0  0  0
 15 21  1  0  0  0
 16 22  1  0  0  0
 17 19  1  0  0  0
 17 23  1  0  0  0
 18 20  1  0  0  0
 18 23  1  0  0  0
 19 26  1  0  0  0
 20 26  1  0  0  0
 21 28  1  0  0  0
 22 28  1  0  0  0
 23 28  1  0  0  0
 24  8  1  0  0  0
 25  9  1  0  0  0
 33 12  1  0  0  0
 33 27  1  0  0  0
  1  2  2  0  0  0
  3 11  2  0  0  0
  4  8  2  0  0  0
  5 12  2  0  0  0
  6  9  2  0  0  0
  7 10  2  0  0  0
 13 30  2  0  0  0
 33 31  2  0  0  0
 33 32  2  0  0  0
M  CHG  2  28   1  29  -1
M  END
> <rmsd>
0.70691824

$$$$
ZINC64580580


 33 36  0  0  0  0  0  0  0  0999 V2000
   -3.2444   -2.5890    0.4336 C   0  0  0  0  0
   -2.4206   -2.2386   -1.8104 C   0  0  0  0  0
    1.0210    2.8836   -2.1903 C   0  0  0  0  0
   -0.0384    2.7666   -1.2905 C   0  0  0  0  0
   -3.2074   -1.2135    0.6620 C   0  0  0  0  0
   -2.3836   -0.8630   -1.5821 C   0  0  0  0  0
    0.9955    0.8064   -0.3281 C   0  0  0  0  0
    2.0548    0.9234   -1.2280 C   0  0  0  0  0
   -2.8509   -3.1016   -0.8026 C   0  0  0  0  0
    2.0676    1.9619   -2.1591 C   0  0  0  0  0
   -0.0511    1.7280   -0.3594 C   0  0  0  0  0
   -2.7770   -0.3505   -0.3458 C   0  0  0  0  0
    3.1489   -0.0644   -1.1737 C   0  0  0  0  0
   -2.5286   -7.0586   -2.6553 C   0  0  0  0  0
   -1.5453   -6.6875   -1.5493 C   0  0  0  0  0
   -3.9182   -6.4884   -2.3874 C   0  0  0  0  0
   -1.4907   -5.1772   -1.3266 C   0  0  0  0  0
   -3.8752   -4.9772   -2.1687 C   0  0  0  0  0
    4.2713    2.9155   -2.6654 C   0  0  0  0  0
    2.8447    2.0450   -4.5098 C   0  0  0  0  0
    5.5177    2.5116   -3.4412 C   0  0  0  0  0
    4.0949    1.6477   -5.2842 C   0  0  0  0  0
   -2.8888   -4.5944   -1.0502 C   0  0  0  0  0
    6.1081    2.4545   -7.2106 C   0  0  0  0  0
    6.4539    2.3134   -5.7444 C   0  0  0  0  0
    3.1211    2.0968   -3.0707 N   0  0  0  0  0
   -1.1358    1.6086    0.5613 N   0  0  0  0  0
    5.2256    2.5748   -4.9189 N   0  0  0  0  0
    3.0530   -1.1307   -1.8869 O   0  0  0  0  0
    4.1595    0.1758   -0.4149 O   0  0  0  0  0
   -3.6865    1.6725    0.9982 O   0  0  0  0  0
   -2.8584    2.0598   -1.3392 O   0  0  0  0  0
   -2.7296    1.3950   -0.0568 S   0  0  0  0  0
  1  9  1  0  0  0
  2  6  1  0  0  0
  3 10  1  0  0  0
  4 11  1  0  0  0
  5 12  1  0  0  0
  7  8  1  0  0  0
  8 13  1  0  0  0
 10 26  1  0  0  0
 11 27  1  0  0  0
 13 29  1  0  0  0
 14 15  1  0  0  0
 14 16  1  0  0  0
 15 17  1  0  0  0
 16 18  1  0  0  0
 17 23  1  0  0  0
 18 23  1  0  0  0
 19 21  1  0  0  0
 19 26  1  0  0  0
 20 22  1  0  0  0
 20 26  1  0  0  0
 21 28  1  0  0  0
 22 28  1  0  0  0
 23  9  1  0  0  0
 24 25  1  0  0  0
 25 28  1  0  0  0
 33 12  1  0  0  0
 33 27  1  0  0  0
  1  5  2  0  0  0
  2  9  2  0  0  0
  3  4  2  0  0  0
  6 12  2  0  0  0
  7 11  2  0  0  0
  8 10  2  0  0  0
 13 30  2  0  0  0
 33 31  2  0  0  0
 33 32  2  0  0  0
M  CHG  2  28   1  29  -1
M  END
> <rmsd>
0.707224011

$$$$
ZINC64580580


 33 36  0  0  0  0  0  0  0  0999 V2000
   -3.5398   -2.5666    0.5396 C   0  0  0  0  0
   -2.9064   -2.3074   -1.7774 C   0  0  0  0  0
    0.8687    2.5242   -2.5712 C   0  0  0  0  0
   -0.1072    2.5009   -1.5747 C   0  0  0  0  0
   -3.3755   -1.1958    0.7380 C   0  0  0  0  0
   -2.7422   -0.9365   -1.5792 C   0  0  0  0  0
    0.8586    0.4767   -0.6763 C   0  0  0  0  0
    1.8343    0.4999   -1.6728 C   0  0  0  0  0
   -3.3051   -3.1225   -0.7181 C   0  0  0  0  0
    1.8393    1.5237   -2.6203 C   0  0  0  0  0
   -0.1122    1.4772   -0.6273 C   0  0  0  0  0
   -2.9767   -0.3807   -0.3215 C   0  0  0  0  0
    2.8493   -0.5700   -1.7022 C   0  0  0  0  0
   -3.4647   -7.1133   -2.5186 C   0  0  0  0  0
   -2.3560   -6.8080   -1.5160 C   0  0  0  0  0
   -4.7748   -6.4329   -2.1333 C   0  0  0  0  0
   -2.1643   -5.3043   -1.3275 C   0  0  0  0  0
   -4.5950   -4.9273   -1.9477 C   0  0  0  0  0
    4.0525    2.2955   -3.3470 C   0  0  0  0  0
    2.3956    1.5189   -5.0342 C   0  0  0  0  0
    5.1855    1.7863   -4.2277 C   0  0  0  0  0
    3.5331    1.0160   -5.9140 C   0  0  0  0  0
   -3.4811   -4.6104   -0.9332 C   0  0  0  0  0
    5.4120    1.6404   -8.0340 C   0  0  0  0  0
    5.8824    1.4892   -6.6039 C   0  0  0  0  0
    2.8096    1.5651   -3.6283 N   0  0  0  0  0
   -1.1112    1.4536    0.3924 N   0  0  0  0  0
    4.7612    1.8555   -5.6728 N   0  0  0  0  0
    2.6047   -1.6335   -2.3833 O   0  0  0  0  0
    3.9423   -0.4012   -1.0452 O   0  0  0  0  0
   -3.5969    1.7225    1.0634 O   0  0  0  0  0
   -2.9652    2.0171   -1.3477 O   0  0  0  0  0
   -2.7679    1.3588   -0.0706 S   0  0  0  0  0
  1  9  1  0  0  0
  2  6  1  0  0  0
  3 10  1  0  0  0
  4 11  1  0  0  0
  5 12  1  0  0  0
  7  8  1  0  0  0
  8 13  1  0  0  0
 10 26  1  0  0  0
 11 27  1  0  0  0
 13 29  1  0  0  0
 14 15  1  0  0  0
 14 16  1  0  0  0
 15 17  1  0  0  0
 16 18  1  0  0  0
 17 23  1  0  0  0
 18 23  1  0  0  0
 19 21  1  0  0  0
 19 26  1  0  0  0
 20 22  1  0  0  0
 20 26  1  0  0  0
 21 28  1  0  0  0
 22 28  1  0  0  0
 23  9  1  0  0  0
 24 25  1  0  0  0
 25 28  1  0  0  0
 33 12  1  0  0  0
 33 27  1  0  0  0
  1  5  2  0  0  0
  2  9  2  0  0  0
  3  4  2  0  0  0
  6 12  2  0  0  0
  7 11  2  0  0  0
  8 10  2  0  0  0
 13 30  2  0  0  0
 33 31  2  0  0  0
 33 32  2  0  0  0
M  CHG  2  28   1  29  -1
M  END
> <rmsd>
0.526303649

$$$$
ZINC16146732


 30 32  0  0  0  0  0  0  0  0999 V2000
    2.1265   -4.5886   -1.4097 C   0  0  0  0  0
    1.1303   -4.7225   -2.3769 C   0  0  0  0  0
    1.1377    2.8327   -1.9760 C   0  0  0  0  0
    2.8574   -3.4039   -1.3208 C   0  0  0  0  0
    0.0273    2.7367   -1.1375 C   0  0  0  0  0
    0.8653   -3.6718   -3.2553 C   0  0  0  0  0
    0.9889    0.7848   -0.0874 C   0  0  0  0  0
   -2.8588   -3.1028   -0.7246 C   0  0  0  0  0
   -3.2805   -1.1898    0.6894 C   0  0  0  0  0
   -2.3280   -0.8803   -1.5092 C   0  0  0  0  0
    2.1738    1.9047   -1.8704 C   0  0  0  0  0
    2.5925   -2.3533   -2.1992 C   0  0  0  0  0
   -0.0472    1.7127   -0.1931 C   0  0  0  0  0
   -3.3168   -2.5683    0.4797 C   0  0  0  0  0
   -2.3644   -2.2589   -1.7190 C   0  0  0  0  0
    2.0994    0.8808   -0.9261 C   0  0  0  0  0
   -2.7860   -0.3458   -0.3050 C   0  0  0  0  0
    1.5964   -2.4872   -3.1664 C   0  0  0  0  0
    3.3490    2.0362   -2.7832 C   0  0  0  0  0
    3.3236   -1.2180   -2.0827 N   0  0  0  0  0
   -1.1838    1.6154    0.6651 N   0  0  0  0  0
    4.6115    0.5045   -0.6590 O   0  0  0  0  0
    3.0612   -1.0233    0.4763 O   0  0  0  0  0
   -3.7549    1.7045    0.9534 O   0  0  0  0  0
   -2.7907    2.0492   -1.3381 O   0  0  0  0  0
   -3.7919   -3.3797    1.4337 F   0  0  0  0  0
   -1.9249   -2.7721   -2.8757 F   0  0  0  0  0
    3.3814   -0.2999   -0.7671 S   0  0  0  0  0
   -2.7412    1.4037   -0.0403 S   0  0  0  0  0
    1.2185   -1.2212   -4.2863 Cl  0  0  0  0  0
  1  2  1  0  0  0
  3 11  1  0  0  0
  4 12  1  0  0  0
  5 13  1  0  0  0
  6 18  1  0  0  0
  7 16  1  0  0  0
  8 14  1  0  0  0
  9 17  1  0  0  0
 10 15  1  0  0  0
 12 20  1  0  0  0
 13 21  1  0  0  0
 14 26  1  0  0  0
 15 27  1  0  0  0
 18 30  1  0  0  0
 19 11  1  0  0  0
 28 16  1  0  0  0
 28 20  1  0  0  0
 29 17  1  0  0  0
 29 21  1  0  0  0
  1  4  2  0  0  0
  2  6  2  0  0  0
  3  5  2  0  0  0
  7 13  2  0  0  0
  8 15  2  0  0  0
  9 14  2  0  0  0
 10 17  2  0  0  0
 11 16  2  0  0  0
 12 18  2  0  0  0
 28 22  2  0  0  0
 28 23  2  0  0  0
 29 24  2  0  0  0
 29 25  2  0  0  0
M  CHG  1  20  -1
M  END
> <rmsd>
0.67833513

$$$$
ZINC32962141


 30 31  0  0  0  0  0  0  0  0999 V2000
   -0.0380    2.7667   -1.2906 C   0  0  0  0  0
    1.0212    2.8834   -2.1906 C   0  0  0  0  0
   -3.2069   -1.2126    0.6628 C   0  0  0  0  0
   -3.2477   -2.5880    0.4347 C   0  0  0  0  0
    0.9957    0.8064   -0.3283 C   0  0  0  0  0
   -2.3865   -0.8645   -1.5828 C   0  0  0  0  0
    2.0548    0.9231   -1.2284 C   0  0  0  0  0
   -0.0508    1.7281   -0.3594 C   0  0  0  0  0
    2.0676    1.9615   -2.1595 C   0  0  0  0  0
   -2.7763   -0.3509   -0.3460 C   0  0  0  0  0
   -2.8578   -3.1018   -0.8022 C   0  0  0  0  0
   -2.4272   -2.2400   -1.8110 C   0  0  0  0  0
    3.1492   -0.0643   -1.1739 C   0  0  0  0  0
    5.9855    2.1148   -2.1875 C   0  0  0  0  0
    5.7938    4.6079   -1.9186 C   0  0  0  0  0
    1.9220    2.0120   -5.8037 C   0  0  0  0  0
    2.6131   -0.4037   -5.9104 C   0  0  0  0  0
    3.9300    3.3249   -3.0724 C   0  0  0  0  0
    3.4527    1.0573   -4.0099 C   0  0  0  0  0
    5.0239    3.2889   -1.9983 C   0  0  0  0  0
    2.3054    0.7765   -4.9878 C   0  0  0  0  0
   -1.1356    1.6087    0.5612 N   0  0  0  0  0
    3.1082    2.0937   -3.0611 N   0  0  0  0  0
    3.0538   -1.1306   -1.8872 O   0  0  0  0  0
    4.1596    0.1763   -0.4150 O   0  0  0  0  0
   -3.6863    1.6721    0.9978 O   0  0  0  0  0
   -2.8580    2.0594   -1.3396 O   0  0  0  0  0
   -2.7292    1.3947   -0.0570 S   0  0  0  0  0
   -2.9294   -4.8150   -1.0226 Cl  0  0  0  0  0
   -1.9323   -2.8158   -3.3642 Cl  0  0  0  0  0
  1  8  1  0  0  0
  2  9  1  0  0  0
  3 10  1  0  0  0
  4 11  1  0  0  0
  5  7  1  0  0  0
  6 12  1  0  0  0
  7 13  1  0  0  0
  8 22  1  0  0  0
  9 23  1  0  0  0
 11 29  1  0  0  0
 12 30  1  0  0  0
 13 24  1  0  0  0
 14 20  1  0  0  0
 15 20  1  0  0  0
 16 21  1  0  0  0
 17 21  1  0  0  0
 18 20  1  0  0  0
 18 23  1  0  0  0
 19 21  1  0  0  0
 19 23  1  0  0  0
 28 10  1  0  0  0
 28 22  1  0  0  0
  1  2  2  0  0  0
  3  4  2  0  0  0
  5  8  2  0  0  0
  6 10  2  0  0  0
  7  9  2  0  0  0
 11 12  2  0  0  0
 13 25  2  0  0  0
 28 26  2  0  0  0
 28 27  2  0  0  0
M  CHG  1  24  -1
M  END
> <rmsd>
0.705610931

$$$$
ZINC32962141


 30 31  0  0  0  0  0  0  0  0999 V2000
   -0.1065    2.5008   -1.5746 C   0  0  0  0  0
    0.8691    2.5239   -2.5711 C   0  0  0  0  0
   -3.3749   -1.1950    0.7386 C   0  0  0  0  0
   -3.5430   -2.5654    0.5409 C   0  0  0  0  0
    0.8588    0.4765   -0.6761 C   0  0  0  0  0
   -2.7451   -0.9378   -1.5797 C   0  0  0  0  0
    1.8344    0.4995   -1.6728 C   0  0  0  0  0
   -0.1116    1.4771   -0.6270 C   0  0  0  0  0
    1.8396    1.5231   -2.6202 C   0  0  0  0  0
   -2.9760   -0.3811   -0.3217 C   0  0  0  0  0
   -3.3120   -3.1221   -0.7171 C   0  0  0  0  0
   -2.9130   -2.3083   -1.7774 C   0  0  0  0  0
    2.8497   -0.5701   -1.7019 C   0  0  0  0  0
    5.7376    1.3679   -3.0150 C   0  0  0  0  0
    5.7649    3.8712   -2.7759 C   0  0  0  0  0
    1.3562    1.5436   -6.2355 C   0  0  0  0  0
    1.8458   -0.9199   -6.3609 C   0  0  0  0  0
    3.7074    2.7256   -3.7274 C   0  0  0  0  0
    2.9706    0.4920   -4.5741 C   0  0  0  0  0
    4.8914    2.6160   -2.7591 C   0  0  0  0  0
    1.7181    0.2911   -5.4358 C   0  0  0  0  0
   -1.1110    1.4536    0.3924 N   0  0  0  0  0
    2.7979    1.5630   -3.6169 N   0  0  0  0  0
    2.6056   -1.6336   -2.3832 O   0  0  0  0  0
    3.9425   -0.4011   -1.0447 O   0  0  0  0  0
   -3.5968    1.7221    1.0629 O   0  0  0  0  0
   -2.9647    2.0167   -1.3482 O   0  0  0  0  0
   -2.7675    1.3585   -0.0709 S   0  0  0  0  0
   -3.5359   -4.8268   -0.8980 Cl  0  0  0  0  0
   -2.6124   -2.9387   -3.3589 Cl  0  0  0  0  0
  1  8  1  0  0  0
  2  9  1  0  0  0
  3 10  1  0  0  0
  4 11  1  0  0  0
  5  7  1  0  0  0
  6 12  1  0  0  0
  7 13  1  0  0  0
  8 22  1  0  0  0
  9 23  1  0  0  0
 11 29  1  0  0  0
 12 30  1  0  0  0
 13 24  1  0  0  0
 14 20  1  0  0  0
 15 20  1  0  0  0
 16 21  1  0  0  0
 17 21  1  0  0  0
 18 20  1  0  0  0
 18 23  1  0  0  0
 19 21  1  0  0  0
 19 23  1  0  0  0
 28 10  1  0  0  0
 28 22  1  0  0  0
  1  2  2  0  0  0
  3  4  2  0  0  0
  5  8  2  0  0  0
  6 10  2  0  0  0
  7  9  2  0  0  0
 11 12  2  0  0  0
 13 25  2  0  0  0
 28 26  2  0  0  0
 28 27  2  0  0  0
M  CHG  1  24  -1
M  END
> <rmsd>
0.524743974

$$$$
ZINC16925754


 33 35  0  0  0  0  0  0  0  0999 V2000
    2.2318   -1.5154    0.6063 C   0  0  0  0  0
    1.3264   -1.3581    1.6556 C   0  0  0  0  0
   -2.5973   -1.5613   -0.9334 C   0  0  0  0  0
   -2.7682   -2.9028   -0.5924 C   0  0  0  0  0
    1.2759    0.4041   -0.5066 C   0  0  0  0  0
   -5.0323   -2.4360    0.1097 C   0  0  0  0  0
    2.2066   -0.6343   -0.4747 C   0  0  0  0  0
    0.3956   -0.3197    1.6238 C   0  0  0  0  0
   -3.6440   -0.6569   -0.7529 C   0  0  0  0  0
    0.3704    0.5615    0.5427 C   0  0  0  0  0
   -3.9857   -3.3402   -0.0708 C   0  0  0  0  0
   -4.8614   -1.0942   -0.2314 C   0  0  0  0  0
   -3.5747    1.7491   -0.1629 C   0  0  0  0  0
   -3.1503    1.1064   -2.4103 C   0  0  0  0  0
    3.1631   -0.8002   -1.5809 C   0  0  0  0  0
   -0.5502   -0.1768    2.7470 C   0  0  0  0  0
   -0.7111    2.5753   -0.5140 C   0  0  0  0  0
   -3.1806    3.0911   -0.7344 C   0  0  0  0  0
   -3.0417   -5.5197    0.0489 C   0  0  0  0  0
   -6.8032   -0.0602   -1.1347 C   0  0  0  0  0
   -1.8397    3.5379   -0.1754 C   0  0  0  0  0
   -3.4517    0.7244   -1.1085 N   0  0  0  0  0
   -0.5648    1.6224    0.4900 N   0  0  0  0  0
    3.1191    0.0264   -2.5677 O   0  0  0  0  0
   -0.2117    0.5562    3.7482 O   0  0  0  0  0
   -3.9691    1.6581    0.9975 O   0  0  0  0  0
   -2.9030    0.4162   -3.3881 O   0  0  0  0  0
    4.0126   -1.7667   -1.5262 O   0  0  0  0  0
   -1.6788   -0.7907    2.6844 O   0  0  0  0  0
   -0.0569    2.6772   -1.5464 O   0  0  0  0  0
   -4.1525   -4.6497    0.2607 O   0  0  0  0  0
   -5.8964   -0.2267   -0.0470 O   0  0  0  0  0
   -3.0848    2.8567   -2.5186 S   0  0  0  0  0
  1  7  1  0  0  0
  2  8  1  0  0  0
  3  9  1  0  0  0
  4 11  1  0  0  0
  5 10  1  0  0  0
  6 12  1  0  0  0
  7 15  1  0  0  0
  8 16  1  0  0  0
  9 22  1  0  0  0
 10 23  1  0  0  0
 11 31  1  0  0  0
 12 32  1  0  0  0
 13 22  1  0  0  0
 14 22  1  0  0  0
 14 33  1  0  0  0
 15 24  1  0  0  0
 16 25  1  0  0  0
 17 23  1  0  0  0
 18 13  1  0  0  0
 18 21  1  0  0  0
 18 33  1  0  0  0
 19 31  1  0  0  0
 20 32  1  0  0  0
 21 17  1  0  0  0
  1  2  2  0  0  0
  3  4  2  0  0  0
  5  7  2  0  0  0
  6 11  2  0  0  0
  8 10  2  0  0  0
  9 12  2  0  0  0
 13 26  2  0  0  0
 14 27  2  0  0  0
 15 28  2  0  0  0
 16 29  2  0  0  0
 17 30  2  0  0  0
M  CHG  2  24  -1  25  -1
M  END
> <rmsd>
0.329250395

$$$$
ZINC33253044


 33 36  0  0  0  0  0  0  0  0999 V2000
    0.8685    2.5241   -2.5708 C   0  0  0  0  0
    5.8984    0.6254   -7.5832 C   0  0  0  0  0
    6.5978    2.8073   -6.8168 C   0  0  0  0  0
   -0.1073    2.5009   -1.5744 C   0  0  0  0  0
    6.8657    0.6680   -8.5872 C   0  0  0  0  0
    7.5652    2.8498   -7.8208 C   0  0  0  0  0
   -3.5400   -2.5661    0.5404 C   0  0  0  0  0
   -2.9058   -2.3078   -1.7764 C   0  0  0  0  0
   -3.3763   -1.1951    0.7382 C   0  0  0  0  0
   -2.7421   -0.9369   -1.5788 C   0  0  0  0  0
    0.8581    0.4764   -0.6761 C   0  0  0  0  0
    1.8339    0.4997   -1.6725 C   0  0  0  0  0
    5.7643    1.6952   -6.6980 C   0  0  0  0  0
    1.8391    1.5235   -2.6199 C   0  0  0  0  0
   -0.1124    1.4771   -0.6270 C   0  0  0  0  0
    7.6991    1.7801   -8.7060 C   0  0  0  0  0
   -3.3047   -3.1224   -0.7168 C   0  0  0  0  0
   -2.9773   -0.3804   -0.3215 C   0  0  0  0  0
    2.8487   -0.5704   -1.7018 C   0  0  0  0  0
    3.5494    0.9160   -5.8829 C   0  0  0  0  0
    5.0049    2.3420   -4.4216 C   0  0  0  0  0
    2.4264    1.5194   -5.0349 C   0  0  0  0  0
    4.2272    1.6555   -3.2954 C   0  0  0  0  0
    4.7996    1.6519   -5.6951 N   0  0  0  0  0
    2.8044    1.5645   -3.6225 N   0  0  0  0  0
   -1.1116    1.4537    0.3926 N   0  0  0  0  0
    2.6040   -1.6338   -2.3830 O   0  0  0  0  0
    3.9418   -0.4018   -1.0448 O   0  0  0  0  0
   -3.5973    1.7229    1.0635 O   0  0  0  0  0
   -2.9654    2.0175   -1.3477 O   0  0  0  0  0
    8.6280    1.8212   -9.6703 F   0  0  0  0  0
   -3.4606   -4.4393   -0.9063 F   0  0  0  0  0
   -2.7682    1.3591   -0.0705 S   0  0  0  0  0
  1 14  1  0  0  0
  2  5  1  0  0  0
  3 13  1  0  0  0
  4 15  1  0  0  0
  6 16  1  0  0  0
  7 17  1  0  0  0
  8 10  1  0  0  0
  9 18  1  0  0  0
 11 12  1  0  0  0
 12 19  1  0  0  0
 13 24  1  0  0  0
 14 25  1  0  0  0
 15 26  1  0  0  0
 16 31  1  0  0  0
 17 32  1  0  0  0
 19 27  1  0  0  0
 20 22  1  0  0  0
 20 24  1  0  0  0
 21 23  1  0  0  0
 21 24  1  0  0  0
 22 25  1  0  0  0
 23 25  1  0  0  0
 33 18  1  0  0  0
 33 26  1  0  0  0
  1  4  2  0  0  0
  2 13  2  0  0  0
  3  6  2  0  0  0
  5 16  2  0  0  0
  7  9  2  0  0  0
  8 17  2  0  0  0
 10 18  2  0  0  0
 11 15  2  0  0  0
 12 14  2  0  0  0
 19 28  2  0  0  0
 33 29  2  0  0  0
 33 30  2  0  0  0
M  CHG  1  27  -1
M  END
> <rmsd>
0.525992572

$$$$
ZINC33253044


 33 36  0  0  0  0  0  0  0  0999 V2000
    1.0206    2.8838   -2.1902 C   0  0  0  0  0
    6.6280    1.4727   -6.7282 C   0  0  0  0  0
    7.0796    3.6874   -5.8747 C   0  0  0  0  0
   -0.0388    2.7668   -1.2903 C   0  0  0  0  0
    7.6781    1.6085   -7.6361 C   0  0  0  0  0
    8.1298    3.8232   -6.7826 C   0  0  0  0  0
   -3.2446   -2.5885    0.4343 C   0  0  0  0  0
   -2.4199   -2.2389   -1.8095 C   0  0  0  0  0
   -3.2081   -1.2129    0.6621 C   0  0  0  0  0
   -2.3835   -0.8632   -1.5818 C   0  0  0  0  0
    0.9950    0.8064   -0.3282 C   0  0  0  0  0
    2.0543    0.9235   -1.2281 C   0  0  0  0  0
    6.3287    2.5123   -5.8475 C   0  0  0  0  0
    2.0671    1.9621   -2.1590 C   0  0  0  0  0
   -0.0515    1.7281   -0.3594 C   0  0  0  0  0
    8.4291    2.7837   -7.6633 C   0  0  0  0  0
   -2.8504   -3.1014   -0.8015 C   0  0  0  0  0
   -2.7776   -0.3502   -0.3460 C   0  0  0  0  0
    3.1484   -0.0644   -1.1739 C   0  0  0  0  0
    4.1156    1.5495   -5.2534 C   0  0  0  0  0
    5.3125    3.0559   -3.6454 C   0  0  0  0  0
    2.8748    2.0486   -4.5079 C   0  0  0  0  0
    4.4899    2.2906   -2.6052 C   0  0  0  0  0
    5.2812    2.3760   -4.9403 N   0  0  0  0  0
    3.1152    2.0963   -3.0658 N   0  0  0  0  0
   -1.1362    1.6087    0.5614 N   0  0  0  0  0
    3.0523   -1.1305   -1.8872 O   0  0  0  0  0
    4.1590    0.1757   -0.4151 O   0  0  0  0  0
   -3.6869    1.6727    0.9983 O   0  0  0  0  0
   -2.8588    2.0602   -1.3391 O   0  0  0  0  0
    9.4374    2.9144   -8.5354 F   0  0  0  0  0
   -2.8841   -4.4226   -1.0197 F   0  0  0  0  0
   -2.7300    1.3953   -0.0567 S   0  0  0  0  0
  1 14  1  0  0  0
  2  5  1  0  0  0
  3 13  1  0  0  0
  4 15  1  0  0  0
  6 16  1  0  0  0
  7 17  1  0  0  0
  8 10  1  0  0  0
  9 18  1  0  0  0
 11 12  1  0  0  0
 12 19  1  0  0  0
 13 24  1  0  0  0
 14 25  1  0  0  0
 15 26  1  0  0  0
 16 31  1  0  0  0
 17 32  1  0  0  0
 19 27  1  0  0  0
 20 22  1  0  0  0
 20 24  1  0  0  0
 21 23  1  0  0  0
 21 24  1  0  0  0
 22 25  1  0  0  0
 23 25  1  0  0  0
 33 18  1  0  0  0
 33 26  1  0  0  0
  1  4  2  0  0  0
  2 13  2  0  0  0
  3  6  2  0  0  0
  5 16  2  0  0  0
  7  9  2  0  0  0
  8 17  2  0  0  0
 10 18  2  0  0  0
 11 15  2  0  0  0
 12 14  2  0  0  0
 19 28  2  0  0  0
 33 29  2  0  0  0
 33 30  2  0  0  0
M  CHG  1  27  -1
M  END
> <rmsd>
0.707065046

$$$$
ZINC59382577


 32 34  0  0  0  0  0  0  0  0999 V2000
   -4.7112    5.9239   -2.3337 C   0  0  0  0  0
   -5.1870    5.4844   -1.0984 C   0  0  0  0  0
   -3.5189    5.4108   -2.8446 C   0  0  0  0  0
   -4.4705    4.5318   -0.3738 C   0  0  0  0  0
   -2.8025    4.4582   -2.1200 C   0  0  0  0  0
   -4.5403   -0.8792   -1.4250 C   0  0  0  0  0
   -4.3314   -1.1983    0.9607 C   0  0  0  0  0
    1.1105    0.0815    0.4770 C   0  0  0  0  0
    0.9739    1.4220   -1.5283 C   0  0  0  0  0
   -4.7889   -2.2422   -1.5856 C   0  0  0  0  0
   -4.5799   -2.5614    0.8001 C   0  0  0  0  0
    2.3055   -0.4764    0.0228 C   0  0  0  0  0
    2.1689    0.8642   -1.9826 C   0  0  0  0  0
   -3.2782    4.0187   -0.8847 C   0  0  0  0  0
   -4.3115   -0.3572   -0.1518 C   0  0  0  0  0
    0.4445    1.0306   -0.2985 C   0  0  0  0  0
   -4.8088   -3.0834   -0.4731 C   0  0  0  0  0
    2.8347   -0.0850   -1.2069 C   0  0  0  0  0
   -3.0616    2.5594    1.2108 C   0  0  0  0  0
   -2.5313    3.0258   -0.1292 C   0  0  0  0  0
   -3.8360    1.5327    1.2321 N   0  0  0  0  0
   -1.4053    2.5144   -0.5800 N   0  0  0  0  0
   -4.0616    1.0141    0.0101 N   0  0  0  0  0
   -0.7584    1.5926    0.1584 N   0  0  0  0  0
   -3.7825   -5.3692   -0.8683 O   0  0  0  0  0
    3.8987   -1.9650   -2.5367 O   0  0  0  0  0
   -5.7783   -5.2266    0.5684 O   0  0  0  0  0
   -5.9932   -4.8527   -1.8555 O   0  0  0  0  0
    4.9675    0.2533   -2.6051 O   0  0  0  0  0
    5.0711   -1.0855   -0.5415 O   0  0  0  0  0
   -5.1201   -4.7896   -0.6737 S   0  0  0  0  0
    4.3306   -0.7829   -1.7758 S   0  0  0  0  0
  1  2  1  0  0  0
  3  5  1  0  0  0
  4 14  1  0  0  0
  6 15  1  0  0  0
  7 11  1  0  0  0
  8 16  1  0  0  0
  9 13  1  0  0  0
 10 17  1  0  0  0
 12 18  1  0  0  0
 14 20  1  0  0  0
 15 23  1  0  0  0
 16 24  1  0  0  0
 19 20  1  0  0  0
 23 21  1  0  0  0
 24 22  1  0  0  0
 31 17  1  0  0  0
 31 25  1  0  0  0
 32 18  1  0  0  0
 32 26  1  0  0  0
  1  3  2  0  0  0
  2  4  2  0  0  0
  5 14  2  0  0  0
  6 10  2  0  0  0
  7 15  2  0  0  0
  8 12  2  0  0  0
  9 16  2  0  0  0
 11 17  2  0  0  0
 13 18  2  0  0  0
 19 21  2  0  0  0
 20 22  2  0  0  0
 31 27  2  0  0  0
 31 28  2  0  0  0
 32 29  2  0  0  0
 32 30  2  0  0  0
M  CHG  2  25  -1  26  -1
M  END
> <rmsd>
0.66831404

$$$$
ZINC27642601


 30 32  0  0  0  0  0  0  0  0999 V2000
   -5.1550    4.0246    0.0317 C   0  0  0  0  0
   -3.0465    5.1692    0.3165 C   0  0  0  0  0
   -1.9913   -2.1117    0.3368 C   0  0  0  0  0
   -2.8300   -1.3530   -1.7981 C   0  0  0  0  0
   -5.7816    5.2434   -0.2282 C   0  0  0  0  0
   -3.6730    6.3880    0.0564 C   0  0  0  0  0
   -3.2809   -2.0516    0.8649 C   0  0  0  0  0
   -4.1196   -1.2929   -1.2701 C   0  0  0  0  0
   -3.7875    3.9875    0.3041 C   0  0  0  0  0
   -1.7659   -1.7624   -0.9947 C   0  0  0  0  0
   -5.0405    6.4251   -0.2159 C   0  0  0  0  0
   -4.3451   -1.6422    0.0614 C   0  0  0  0  0
    1.6078   -1.5664   -1.9559 C   0  0  0  0  0
    0.6215   -1.1423   -1.1013 C   0  0  0  0  0
   -3.1197    2.6892    0.5807 C   0  0  0  0  0
    3.0623   -1.1128   -1.9344 C   0  0  0  0  0
   -0.0277    1.1396   -0.3258 C   0  0  0  0  0
   -4.8354    8.7838   -0.4398 C   0  0  0  0  0
    0.6283   -0.1723    0.0500 C   0  0  0  0  0
    1.0899   -2.4678   -2.8441 N   0  0  0  0  0
   -0.2006   -2.6187   -2.5668 N   0  0  0  0  0
   -0.4795   -1.8230   -1.5216 N   0  0  0  0  0
   -1.7743    2.6301    0.2710 N   0  0  0  0  0
   -1.0992    1.4534    0.4867 N   0  0  0  0  0
    3.8273   -1.6168   -2.8048 O   0  0  0  0  0
   -3.7774    1.7599    1.0419 O   0  0  0  0  0
    3.3815   -0.2708   -1.0476 O   0  0  0  0  0
    0.3918    1.8335   -1.2506 O   0  0  0  0  0
   -5.6522    7.6142   -0.4683 O   0  0  0  0  0
   -6.0925   -1.5601    0.7771 Br  0  0  0  0  0
  1  9  1  0  0  0
  2  6  1  0  0  0
  3 10  1  0  0  0
  4  8  1  0  0  0
  5 11  1  0  0  0
  7 12  1  0  0  0
  9 15  1  0  0  0
 10 22  1  0  0  0
 11 29  1  0  0  0
 12 30  1  0  0  0
 13 16  1  0  0  0
 13 20  1  0  0  0
 14 22  1  0  0  0
 15 23  1  0  0  0
 16 25  1  0  0  0
 17 24  1  0  0  0
 18 29  1  0  0  0
 19 14  1  0  0  0
 19 17  1  0  0  0
 22 21  1  0  0  0
 23 24  1  0  0  0
  1  5  2  0  0  0
  2  9  2  0  0  0
  3  7  2  0  0  0
  4 10  2  0  0  0
  6 11  2  0  0  0
  8 12  2  0  0  0
 13 14  2  0  0  0
 15 26  2  0  0  0
 16 27  2  0  0  0
 17 28  2  0  0  0
 20 21  2  0  0  0
M  CHG  1  25  -1
M  END
> <rmsd>
0.491943449

$$$$
ZINC12997659


 29 31  0  0  0  0  0  0  0  0999 V2000
   -2.3489   -2.7779    0.0565 C   0  0  0  0  0
   -3.0017   -0.9889   -1.4304 C   0  0  0  0  0
   -3.6081   -2.7398    0.6551 C   0  0  0  0  0
   -4.2610   -0.9509   -0.8318 C   0  0  0  0  0
   -5.8868    2.8572   -0.4276 C   0  0  0  0  0
   -7.2120    2.9894   -0.8423 C   0  0  0  0  0
   -6.6940    5.1410   -1.8116 C   0  0  0  0  0
   -2.0457   -1.9023   -0.9863 C   0  0  0  0  0
   -4.5643   -1.8264    0.2110 C   0  0  0  0  0
   -5.3688    5.0087   -1.3969 C   0  0  0  0  0
   -4.9652    3.8669   -0.7049 C   0  0  0  0  0
   -7.6156    4.1312   -1.5343 C   0  0  0  0  0
   -0.7434   -1.9423   -1.6059 C   0  0  0  0  0
    1.3448   -1.5345   -2.0320 C   0  0  0  0  0
   -0.3346    1.0389   -0.4139 C   0  0  0  0  0
   -3.0728    2.6410    0.4178 C   0  0  0  0  0
   -5.9106   -1.7855    0.8513 C   0  0  0  0  0
   -4.4026    6.1061   -1.7066 C   0  0  0  0  0
    0.3370   -0.2765   -0.0822 C   0  0  0  0  0
   -1.5985    2.8808    0.6800 C   0  0  0  0  0
   -0.4009   -2.6766   -2.6403 N   0  0  0  0  0
    0.9277   -2.4170   -2.9114 N   0  0  0  0  0
    0.3252   -1.2074   -1.1904 N   0  0  0  0  0
   -3.6250    3.7142   -0.2765 N   0  0  0  0  0
   -0.8937    1.6204    0.7148 N   0  0  0  0  0
   -0.3713    1.5135   -1.5461 O   0  0  0  0  0
   -3.6436    1.6178    0.7817 O   0  0  0  0  0
    2.9111   -0.8891   -1.9392 S   0  0  0  0  0
   -9.4110    4.3092   -2.0970 Br  0  0  0  0  0
  1  8  1  0  0  0
  2  4  1  0  0  0
  3  9  1  0  0  0
  5 11  1  0  0  0
  6 12  1  0  0  0
  7 10  1  0  0  0
  8 13  1  0  0  0
 11 24  1  0  0  0
 12 29  1  0  0  0
 13 23  1  0  0  0
 14 22  1  0  0  0
 14 23  1  0  0  0
 15 25  1  0  0  0
 16 24  1  0  0  0
 17  9  1  0  0  0
 18 10  1  0  0  0
 19 15  1  0  0  0
 19 23  1  0  0  0
 20 16  1  0  0  0
 20 25  1  0  0  0
 21 22  1  0  0  0
  1  3  2  0  0  0
  2  8  2  0  0  0
  4  9  2  0  0  0
  5  6  2  0  0  0
  7 12  2  0  0  0
 10 11  2  0  0  0
 13 21  2  0  0  0
 14 28  2  0  0  0
 15 26  2  0  0  0
 16 27  2  0  0  0
M  CHG  1  28  -1
M  END
> <rmsd>
0.499137431

$$$$
ZINC12997875


 29 31  0  0  0  0  0  0  0  0999 V2000
   -3.6544   -2.7352    0.4734 C   0  0  0  0  0
   -2.3525   -2.7953   -0.0233 C   0  0  0  0  0
   -4.5807   -1.8645   -0.1010 C   0  0  0  0  0
   -6.0345    3.1014    1.1886 C   0  0  0  0  0
   -7.3917    3.3145    1.4297 C   0  0  0  0  0
   -2.9028   -1.1140   -1.6689 C   0  0  0  0  0
   -7.1520    5.6184    0.7431 C   0  0  0  0  0
   -1.9766   -1.9847   -1.0945 C   0  0  0  0  0
   -4.2047   -1.0540   -1.1720 C   0  0  0  0  0
   -5.7948    5.4054    0.5022 C   0  0  0  0  0
   -5.2360    4.1469    0.7249 C   0  0  0  0  0
   -7.9504    4.5730    1.2069 C   0  0  0  0  0
   -0.6299   -2.0466   -1.6074 C   0  0  0  0  0
    1.4818   -1.6382   -1.8962 C   0  0  0  0  0
   -0.3415    1.0107   -0.5849 C   0  0  0  0  0
   -3.1618    2.7194    0.6577 C   0  0  0  0  0
   -5.1958   -0.1237   -1.7859 C   0  0  0  0  0
   -4.9623    6.5433    0.0063 C   0  0  0  0  0
    0.3134   -0.2711   -0.1168 C   0  0  0  0  0
   -1.7032    2.9017    0.2851 C   0  0  0  0  0
   -0.2012   -2.8413   -2.5618 N   0  0  0  0  0
    1.1423   -2.5815   -2.7456 N   0  0  0  0  0
    0.3966   -1.2717   -1.1594 N   0  0  0  0  0
   -3.8612    3.9110    0.4856 N   0  0  0  0  0
   -0.9922    1.6559    0.4567 N   0  0  0  0  0
   -0.2938    1.4107   -1.7450 O   0  0  0  0  0
   -3.6091    1.6432    1.0412 O   0  0  0  0  0
    3.0302   -0.9667   -1.7247 S   0  0  0  0  0
   -9.7898    4.8607    1.5327 Br  0  0  0  0  0
  1  2  1  0  0  0
  3  9  1  0  0  0
  4 11  1  0  0  0
  5 12  1  0  0  0
  6  8  1  0  0  0
  7 10  1  0  0  0
  8 13  1  0  0  0
 11 24  1  0  0  0
 12 29  1  0  0  0
 13 23  1  0  0  0
 14 22  1  0  0  0
 14 23  1  0  0  0
 15 25  1  0  0  0
 16 24  1  0  0  0
 17  9  1  0  0  0
 18 10  1  0  0  0
 19 15  1  0  0  0
 19 23  1  0  0  0
 20 16  1  0  0  0
 20 25  1  0  0  0
 21 22  1  0  0  0
  1  3  2  0  0  0
  2  8  2  0  0  0
  4  5  2  0  0  0
  6  9  2  0  0  0
  7 12  2  0  0  0
 10 11  2  0  0  0
 13 21  2  0  0  0
 14 28  2  0  0  0
 15 26  2  0  0  0
 16 27  2  0  0  0
M  CHG  1  28  -1
M  END
> <rmsd>
0.539409697

$$$$
ZINC12997875


 29 31  0  0  0  0  0  0  0  0999 V2000
   -4.2596   -0.9505   -0.8316 C   0  0  0  0  0
   -3.0003   -0.9891   -1.4298 C   0  0  0  0  0
   -4.5636   -1.8260    0.2110 C   0  0  0  0  0
   -5.8866    2.8562   -0.4281 C   0  0  0  0  0
   -7.2118    2.9882   -0.8427 C   0  0  0  0  0
   -2.3487   -2.7785    0.0569 C   0  0  0  0  0
   -6.6941    5.1396   -1.8128 C   0  0  0  0  0
   -2.0448   -1.9030   -0.9857 C   0  0  0  0  0
   -3.6081   -2.7400    0.6553 C   0  0  0  0  0
   -5.3688    5.0076   -1.3981 C   0  0  0  0  0
   -4.9651    3.8659   -0.7057 C   0  0  0  0  0
   -7.6155    4.1298   -1.5352 C   0  0  0  0  0
   -0.7429   -1.9431   -1.6053 C   0  0  0  0  0
    1.3455   -1.5351   -2.0315 C   0  0  0  0  0
   -0.3341    1.0386   -0.4142 C   0  0  0  0  0
   -3.0725    2.6405    0.4173 C   0  0  0  0  0
   -3.9338   -3.6753    1.7703 C   0  0  0  0  0
   -4.4027    6.1049   -1.7082 C   0  0  0  0  0
    0.3374   -0.2766   -0.0821 C   0  0  0  0  0
   -1.5983    2.8806    0.6793 C   0  0  0  0  0
   -0.4003   -2.6776   -2.6394 N   0  0  0  0  0
    0.9283   -2.4181   -2.9106 N   0  0  0  0  0
    0.3258   -1.2079   -1.1901 N   0  0  0  0  0
   -3.6249    3.7134   -0.2774 N   0  0  0  0  0
   -0.8933    1.6202    0.7145 N   0  0  0  0  0
   -0.3711    1.5128   -1.5464 O   0  0  0  0  0
   -3.6432    1.6174    0.7815 O   0  0  0  0  0
    2.9116   -0.8895   -1.9390 S   0  0  0  0  0
   -9.4111    4.3074   -2.0977 Br  0  0  0  0  0
  1  2  1  0  0  0
  3  9  1  0  0  0
  4 11  1  0  0  0
  5 12  1  0  0  0
  6  8  1  0  0  0
  7 10  1  0  0  0
  8 13  1  0  0  0
 11 24  1  0  0  0
 12 29  1  0  0  0
 13 23  1  0  0  0
 14 22  1  0  0  0
 14 23  1  0  0  0
 15 25  1  0  0  0
 16 24  1  0  0  0
 17  9  1  0  0  0
 18 10  1  0  0  0
 19 15  1  0  0  0
 19 23  1  0  0  0
 20 16  1  0  0  0
 20 25  1  0  0  0
 21 22  1  0  0  0
  1  3  2  0  0  0
  2  8  2  0  0  0
  4  5  2  0  0  0
  6  9  2  0  0  0
  7 12  2  0  0  0
 10 11  2  0  0  0
 13 21  2  0  0  0
 14 28  2  0  0  0
 15 26  2  0  0  0
 16 27  2  0  0  0
M  CHG  1  28  -1
M  END
> <rmsd>
0.498975098

$$$$
ZINC12997659


 29 31  0  0  0  0  0  0  0  0999 V2000
   -2.3529   -2.7951   -0.0231 C   0  0  0  0  0
   -2.9032   -1.1152   -1.6700 C   0  0  0  0  0
   -3.6553   -2.7358    0.4726 C   0  0  0  0  0
   -4.2057   -1.0559   -1.1744 C   0  0  0  0  0
   -6.0341    3.1017    1.1886 C   0  0  0  0  0
   -7.3913    3.3149    1.4297 C   0  0  0  0  0
   -7.1517    5.6188    0.7429 C   0  0  0  0  0
   -1.9768   -1.9847   -1.0944 C   0  0  0  0  0
   -4.5818   -1.8663   -0.1030 C   0  0  0  0  0
   -5.7944    5.4057    0.5018 C   0  0  0  0  0
   -5.2356    4.1471    0.7246 C   0  0  0  0  0
   -7.9501    4.5734    1.2069 C   0  0  0  0  0
   -0.6299   -2.0467   -1.6075 C   0  0  0  0  0
    1.4816   -1.6385   -1.8965 C   0  0  0  0  0
   -0.3414    1.0107   -0.5853 C   0  0  0  0  0
   -3.1616    2.7196    0.6573 C   0  0  0  0  0
   -5.9744   -1.8027    0.4271 C   0  0  0  0  0
   -4.9620    6.5435    0.0057 C   0  0  0  0  0
    0.3136   -0.2711   -0.1172 C   0  0  0  0  0
   -1.7030    2.9018    0.2845 C   0  0  0  0  0
   -0.2013   -2.8415   -2.5619 N   0  0  0  0  0
    1.1421   -2.5817   -2.7458 N   0  0  0  0  0
    0.3966   -1.2718   -1.1596 N   0  0  0  0  0
   -3.8610    3.9112    0.4851 N   0  0  0  0  0
   -0.9920    1.6561    0.4563 N   0  0  0  0  0
   -0.2938    1.4106   -1.7456 O   0  0  0  0  0
   -3.6089    1.6435    1.0409 O   0  0  0  0  0
    3.0302   -0.9669   -1.7253 S   0  0  0  0  0
   -9.7894    4.8611    1.5328 Br  0  0  0  0  0
  1  8  1  0  0  0
  2  4  1  0  0  0
  3  9  1  0  0  0
  5 11  1  0  0  0
  6 12  1  0  0  0
  7 10  1  0  0  0
  8 13  1  0  0  0
 11 24  1  0  0  0
 12 29  1  0  0  0
 13 23  1  0  0  0
 14 22  1  0  0  0
 14 23  1  0  0  0
 15 25  1  0  0  0
 16 24  1  0  0  0
 17  9  1  0  0  0
 18 10  1  0  0  0
 19 15  1  0  0  0
 19 23  1  0  0  0
 20 16  1  0  0  0
 20 25  1  0  0  0
 21 22  1  0  0  0
  1  3  2  0  0  0
  2  8  2  0  0  0
  4  9  2  0  0  0
  5  6  2  0  0  0
  7 12  2  0  0  0
 10 11  2  0  0  0
 13 21  2  0  0  0
 14 28  2  0  0  0
 15 26  2  0  0  0
 16 27  2  0  0  0
M  CHG  1  28  -1
M  END
> <rmsd>
0.539670348

$$$$
ZINC12997875


 29 31  0  0  0  0  0  0  0  0999 V2000
   -3.4481   -2.2140    0.9548 C   0  0  0  0  0
   -2.1893   -2.2533    0.3553 C   0  0  0  0  0
   -4.5625   -1.8245    0.2119 C   0  0  0  0  0
   -5.8858    2.8568   -0.4279 C   0  0  0  0  0
   -7.2108    2.9893   -0.8427 C   0  0  0  0  0
   -3.1593   -1.5132   -1.7299 C   0  0  0  0  0
   -6.6924    5.1411   -1.8116 C   0  0  0  0  0
   -2.0449   -1.9030   -0.9871 C   0  0  0  0  0
   -4.4181   -1.4740   -1.1305 C   0  0  0  0  0
   -5.3673    5.0086   -1.3967 C   0  0  0  0  0
   -4.9640    3.8665   -0.7048 C   0  0  0  0  0
   -7.6142    4.1313   -1.5346 C   0  0  0  0  0
   -0.7428   -1.9429   -1.6065 C   0  0  0  0  0
    1.3457   -1.5352   -2.0321 C   0  0  0  0  0
   -0.3337    1.0380   -0.4138 C   0  0  0  0  0
   -3.0719    2.6401    0.4179 C   0  0  0  0  0
   -5.6103   -1.0579   -1.9241 C   0  0  0  0  0
   -4.4009    6.1059   -1.7060 C   0  0  0  0  0
    0.3376   -0.2775   -0.0822 C   0  0  0  0  0
   -1.5977    2.8797    0.6804 C   0  0  0  0  0
   -0.4002   -2.6771   -2.6409 N   0  0  0  0  0
    0.9285   -2.4176   -2.9117 N   0  0  0  0  0
    0.3260   -1.2082   -1.1907 N   0  0  0  0  0
   -3.6239    3.7135   -0.2762 N   0  0  0  0  0
   -0.8929    1.6192    0.7151 N   0  0  0  0  0
   -0.3703    1.5128   -1.5457 O   0  0  0  0  0
   -3.6429    1.6169    0.7815 O   0  0  0  0  0
    2.9119   -0.8900   -1.9389 S   0  0  0  0  0
   -9.4096    4.3096   -2.0974 Br  0  0  0  0  0
  1  2  1  0  0  0
  3  9  1  0  0  0
  4 11  1  0  0  0
  5 12  1  0  0  0
  6  8  1  0  0  0
  7 10  1  0  0  0
  8 13  1  0  0  0
 11 24  1  0  0  0
 12 29  1  0  0  0
 13 23  1  0  0  0
 14 22  1  0  0  0
 14 23  1  0  0  0
 15 25  1  0  0  0
 16 24  1  0  0  0
 17  9  1  0  0  0
 18 10  1  0  0  0
 19 15  1  0  0  0
 19 23  1  0  0  0
 20 16  1  0  0  0
 20 25  1  0  0  0
 21 22  1  0  0  0
  1  3  2  0  0  0
  2  8  2  0  0  0
  4  5  2  0  0  0
  6  9  2  0  0  0
  7 12  2  0  0  0
 10 11  2  0  0  0
 13 21  2  0  0  0
 14 28  2  0  0  0
 15 26  2  0  0  0
 16 27  2  0  0  0
M  CHG  1  28  -1
M  END
> <rmsd>
0.499017268

$$$$
ZINC12997659


 29 31  0  0  0  0  0  0  0  0999 V2000
   -2.1939   -2.9199   -0.0318 C   0  0  0  0  0
   -2.8522   -1.1770   -1.5699 C   0  0  0  0  0
   -3.4714   -2.9086    0.5279 C   0  0  0  0  0
   -4.1298   -1.1657   -1.0104 C   0  0  0  0  0
   -5.8737    2.9357   -0.8190 C   0  0  0  0  0
   -7.1350    2.8973   -1.4130 C   0  0  0  0  0
   -6.1124    3.0688   -3.5953 C   0  0  0  0  0
   -1.8842   -2.0541   -1.0807 C   0  0  0  0  0
   -4.4395   -2.0316    0.0385 C   0  0  0  0  0
   -4.8511    3.1072   -3.0011 C   0  0  0  0  0
   -4.7316    3.0408   -1.6129 C   0  0  0  0  0
   -7.2545    2.9638   -2.8012 C   0  0  0  0  0
   -0.5630   -2.0664   -1.6600 C   0  0  0  0  0
    1.5247   -1.6047   -2.0302 C   0  0  0  0  0
   -0.2772    0.9458   -0.5107 C   0  0  0  0  0
   -3.0849    2.4807    0.2089 C   0  0  0  0  0
   -5.8055   -2.0193    0.6371 C   0  0  0  0  0
   -3.6443    3.2208   -3.8756 C   0  0  0  0  0
    0.4216   -0.3434   -0.1349 C   0  0  0  0  0
   -1.6269    2.7683    0.5109 C   0  0  0  0  0
   -0.1678   -2.8081   -2.6699 N   0  0  0  0  0
    1.1604   -2.5143   -2.9056 N   0  0  0  0  0
    0.4707   -1.2932   -1.2259 N   0  0  0  0  0
   -3.4606    3.0776   -0.9917 N   0  0  0  0  0
   -0.8873    1.5300    0.5899 N   0  0  0  0  0
   -0.2929    1.3994   -1.6518 O   0  0  0  0  0
   -3.7846    1.7997    0.9519 O   0  0  0  0  0
    3.0681   -0.9120   -1.9019 S   0  0  0  0  0
   -8.9639    2.9106   -3.6056 Br  0  0  0  0  0
  1  8  1  0  0  0
  2  4  1  0  0  0
  3  9  1  0  0  0
  5 11  1  0  0  0
  6 12  1  0  0  0
  7 10  1  0  0  0
  8 13  1  0  0  0
 11 24  1  0  0  0
 12 29  1  0  0  0
 13 23  1  0  0  0
 14 22  1  0  0  0
 14 23  1  0  0  0
 15 25  1  0  0  0
 16 24  1  0  0  0
 17  9  1  0  0  0
 18 10  1  0  0  0
 19 15  1  0  0  0
 19 23  1  0  0  0
 20 16  1  0  0  0
 20 25  1  0  0  0
 21 22  1  0  0  0
  1  3  2  0  0  0
  2  8  2  0  0  0
  4  9  2  0  0  0
  5  6  2  0  0  0
  7 12  2  0  0  0
 10 11  2  0  0  0
 13 21  2  0  0  0
 14 28  2  0  0  0
 15 26  2  0  0  0
 16 27  2  0  0  0
M  CHG  1  28  -1
M  END
> <rmsd>
0.561926961

$$$$
ZINC12997875


 29 31  0  0  0  0  0  0  0  0999 V2000
   -4.2046   -1.0551   -1.1735 C   0  0  0  0  0
   -2.9021   -1.1148   -1.6687 C   0  0  0  0  0
   -4.5814   -1.8655   -0.1024 C   0  0  0  0  0
   -6.0343    3.1018    1.1887 C   0  0  0  0  0
   -7.3915    3.3147    1.4299 C   0  0  0  0  0
   -2.3529   -2.7952   -0.0221 C   0  0  0  0  0
   -7.1521    5.6185    0.7425 C   0  0  0  0  0
   -1.9763   -1.9848   -1.0931 C   0  0  0  0  0
   -3.6555   -2.7355    0.4733 C   0  0  0  0  0
   -5.7949    5.4055    0.5014 C   0  0  0  0  0
   -5.2360    4.1471    0.7245 C   0  0  0  0  0
   -7.9504    4.5731    1.2068 C   0  0  0  0  0
   -0.6296   -2.0468   -1.6062 C   0  0  0  0  0
    1.4820   -1.6383   -1.8955 C   0  0  0  0  0
   -0.3413    1.0110   -0.5850 C   0  0  0  0  0
   -3.1617    2.7198    0.6574 C   0  0  0  0  0
   -4.0591   -3.6013    1.6187 C   0  0  0  0  0
   -4.9627    6.5433    0.0049 C   0  0  0  0  0
    0.3138   -0.2706   -0.1165 C   0  0  0  0  0
   -1.7031    2.9021    0.2845 C   0  0  0  0  0
   -0.2009   -2.8418   -2.5604 N   0  0  0  0  0
    1.1424   -2.5819   -2.7445 N   0  0  0  0  0
    0.3969   -1.2716   -1.1587 N   0  0  0  0  0
   -3.8612    3.9113    0.4850 N   0  0  0  0  0
   -0.9920    1.6565    0.4566 N   0  0  0  0  0
   -0.2939    1.4105   -1.7452 O   0  0  0  0  0
   -3.6088    1.6437    1.0415 O   0  0  0  0  0
    3.0303   -0.9665   -1.7245 S   0  0  0  0  0
   -9.7897    4.8607    1.5327 Br  0  0  0  0  0
  1  2  1  0  0  0
  3  9  1  0  0  0
  4 11  1  0  0  0
  5 12  1  0  0  0
  6  8  1  0  0  0
  7 10  1  0  0  0
  8 13  1  0  0  0
 11 24  1  0  0  0
 12 29  1  0  0  0
 13 23  1  0  0  0
 14 22  1  0  0  0
 14 23  1  0  0  0
 15 25  1  0  0  0
 16 24  1  0  0  0
 17  9  1  0  0  0
 18 10  1  0  0  0
 19 15  1  0  0  0
 19 23  1  0  0  0
 20 16  1  0  0  0
 20 25  1  0  0  0
 21 22  1  0  0  0
  1  3  2  0  0  0
  2  8  2  0  0  0
  4  5  2  0  0  0
  6  9  2  0  0  0
  7 12  2  0  0  0
 10 11  2  0  0  0
 13 21  2  0  0  0
 14 28  2  0  0  0
 15 26  2  0  0  0
 16 27  2  0  0  0
M  CHG  1  28  -1
M  END
> <rmsd>
0.539784133

$$$$
ZINC32961599


 33 35  0  0  0  0  0  0  0  0999 V2000
    0.8691    2.5248   -2.5706 C   0  0  0  0  0
   -0.1068    2.5015   -1.5742 C   0  0  0  0  0
    0.8584    0.4768   -0.6762 C   0  0  0  0  0
   -2.9186   -2.6388    0.5326 C   0  0  0  0  0
   -3.5261   -2.2339   -1.7704 C   0  0  0  0  0
    1.8342    0.5001   -1.6727 C   0  0  0  0  0
   -3.3041   -3.1219   -0.7178 C   0  0  0  0  0
   -2.7553   -1.2678    0.7305 C   0  0  0  0  0
   -3.3626   -0.8629   -1.5725 C   0  0  0  0  0
    1.8395    1.5241   -2.6198 C   0  0  0  0  0
   -0.1122    1.4775   -0.6271 C   0  0  0  0  0
   -2.9772   -0.3797   -0.3220 C   0  0  0  0  0
    2.8489   -0.5701   -1.7021 C   0  0  0  0  0
    5.5224    2.4443   -6.6175 C   0  0  0  0  0
    4.0558    2.2969   -3.3462 C   0  0  0  0  0
    2.3957    1.5190   -5.0367 C   0  0  0  0  0
    5.1819    1.7916   -4.2450 C   0  0  0  0  0
    3.5466    1.0291   -5.9147 C   0  0  0  0  0
   -3.4778   -4.5881   -0.9298 C   0  0  0  0  0
   -2.3403   -0.7877    2.0835 C   0  0  0  0  0
   -3.6089    0.0582   -2.7232 C   0  0  0  0  0
    4.9536    2.7631  -10.2301 C   0  0  0  0  0
    5.6933    2.9830   -8.9278 C   0  0  0  0  0
    2.8098    1.5655   -3.6275 N   0  0  0  0  0
    4.7659    1.7904   -5.6436 N   0  0  0  0  0
   -1.1113    1.4539    0.3926 N   0  0  0  0  0
    2.6042   -1.6333   -2.3836 O   0  0  0  0  0
    3.9419   -0.4017   -1.0450 O   0  0  0  0  0
    6.5652    3.0550   -6.3904 O   0  0  0  0  0
   -3.5970    1.7233    1.0633 O   0  0  0  0  0
   -2.9650    2.0183   -1.3477 O   0  0  0  0  0
    4.9768    2.3366   -7.8693 O   0  0  0  0  0
   -2.7679    1.3596   -0.0708 S   0  0  0  0  0
  1 10  1  0  0  0
  2 11  1  0  0  0
  3  6  1  0  0  0
  4  7  1  0  0  0
  5  9  1  0  0  0
  6 13  1  0  0  0
  8 12  1  0  0  0
 10 24  1  0  0  0
 11 26  1  0  0  0
 13 27  1  0  0  0
 14 25  1  0  0  0
 14 32  1  0  0  0
 15 17  1  0  0  0
 15 24  1  0  0  0
 16 18  1  0  0  0
 16 24  1  0  0  0
 17 25  1  0  0  0
 18 25  1  0  0  0
 19  7  1  0  0  0
 20  8  1  0  0  0
 21  9  1  0  0  0
 22 23  1  0  0  0
 23 32  1  0  0  0
 33 12  1  0  0  0
 33 26  1  0  0  0
  1  2  2  0  0  0
  3 11  2  0  0  0
  4  8  2  0  0  0
  5  7  2  0  0  0
  6 10  2  0  0  0
  9 12  2  0  0  0
 13 28  2  0  0  0
 14 29  2  0  0  0
 33 30  2  0  0  0
 33 31  2  0  0  0
M  CHG  1  27  -1
M  END
> <rmsd>
0.526576757

$$$$
ZINC32961599


 33 35  0  0  0  0  0  0  0  0999 V2000
    1.0212    2.8843   -2.1898 C   0  0  0  0  0
   -0.0383    2.7673   -1.2901 C   0  0  0  0  0
    0.9952    0.8066   -0.3283 C   0  0  0  0  0
   -2.6215   -2.6129    0.4841 C   0  0  0  0  0
   -3.0421   -2.2132   -1.8611 C   0  0  0  0  0
    2.0546    0.9236   -1.2281 C   0  0  0  0  0
   -2.8500   -3.1009   -0.8024 C   0  0  0  0  0
   -2.5854   -1.2373    0.7122 C   0  0  0  0  0
   -3.0059   -0.8375   -1.6331 C   0  0  0  0  0
    2.0676    1.9625   -2.1589 C   0  0  0  0  0
   -0.0512    1.7284   -0.3594 C   0  0  0  0  0
   -2.7775   -0.3495   -0.3465 C   0  0  0  0  0
    3.1486   -0.0644   -1.1740 C   0  0  0  0  0
    6.0225    3.2384   -5.7814 C   0  0  0  0  0
    4.2742    2.9173   -2.6646 C   0  0  0  0  0
    2.8447    2.0455   -4.5125 C   0  0  0  0  0
    5.5152    2.5172   -3.4590 C   0  0  0  0  0
    4.1071    1.6622   -5.2839 C   0  0  0  0  0
   -2.8876   -4.5719   -1.0465 C   0  0  0  0  0
   -2.3370   -0.7520    2.1035 C   0  0  0  0  0
   -3.2157    0.0832   -2.7913 C   0  0  0  0  0
    5.7687    3.5797   -9.4276 C   0  0  0  0  0
    6.3646    3.8317   -8.0590 C   0  0  0  0  0
    3.1210    2.0974   -3.0702 N   0  0  0  0  0
    5.2324    2.5101   -4.8905 N   0  0  0  0  0
   -1.1359    1.6089    0.5614 N   0  0  0  0  0
    3.0524   -1.1304   -1.8876 O   0  0  0  0  0
    4.1591    0.1755   -0.4151 O   0  0  0  0  0
    6.9885    3.9233   -5.4502 O   0  0  0  0  0
   -3.6866    1.6732    0.9981 O   0  0  0  0  0
   -2.8584    2.0610   -1.3392 O   0  0  0  0  0
    5.6058    3.1123   -7.0801 O   0  0  0  0  0
   -2.7297    1.3958   -0.0569 S   0  0  0  0  0
  1 10  1  0  0  0
  2 11  1  0  0  0
  3  6  1  0  0  0
  4  7  1  0  0  0
  5  9  1  0  0  0
  6 13  1  0  0  0
  8 12  1  0  0  0
 10 24  1  0  0  0
 11 26  1  0  0  0
 13 27  1  0  0  0
 14 25  1  0  0  0
 14 32  1  0  0  0
 15 17  1  0  0  0
 15 24  1  0  0  0
 16 18  1  0  0  0
 16 24  1  0  0  0
 17 25  1  0  0  0
 18 25  1  0  0  0
 19  7  1  0  0  0
 20  8  1  0  0  0
 21  9  1  0  0  0
 22 23  1  0  0  0
 23 32  1  0  0  0
 33 12  1  0  0  0
 33 26  1  0  0  0
  1  2  2  0  0  0
  3 11  2  0  0  0
  4  8  2  0  0  0
  5  7  2  0  0  0
  6 10  2  0  0  0
  9 12  2  0  0  0
 13 28  2  0  0  0
 14 29  2  0  0  0
 33 30  2  0  0  0
 33 31  2  0  0  0
M  CHG  1  27  -1
M  END
> <rmsd>
0.707471907

$$$$
ZINC32961626


 33 35  0  0  0  0  0  0  0  0999 V2000
    0.8573    2.5112   -2.5857 C   0  0  0  0  0
   -0.1159    2.4923   -1.5865 C   0  0  0  0  0
    0.8568    0.4762   -0.6773 C   0  0  0  0  0
   -3.0219   -2.6496    0.5404 C   0  0  0  0  0
   -3.2605   -0.8613   -1.5875 C   0  0  0  0  0
    1.8299    0.4952   -1.6765 C   0  0  0  0  0
   -3.3068   -3.1234   -0.7402 C   0  0  0  0  0
   -2.8564   -1.2816    0.7571 C   0  0  0  0  0
   -3.4262   -2.2293   -1.8041 C   0  0  0  0  0
    1.8301    1.5126   -2.6307 C   0  0  0  0  0
   -0.1161    1.4748   -0.6324 C   0  0  0  0  0
   -2.9756   -0.3875   -0.3068 C   0  0  0  0  0
    2.8472   -0.5727   -1.7014 C   0  0  0  0  0
    5.4998    2.4147   -6.6446 C   0  0  0  0  0
    4.0424    2.2860   -3.3683 C   0  0  0  0  0
    2.3798    1.4924   -5.0489 C   0  0  0  0  0
    5.1674    1.7774   -4.2667 C   0  0  0  0  0
    3.5295    0.9994   -5.9267 C   0  0  0  0  0
   -3.4802   -4.5922   -0.9481 C   0  0  0  0  0
   -2.5511   -0.8068    2.1403 C   0  0  0  0  0
   -3.7311   -2.7136   -3.1838 C   0  0  0  0  0
    4.9205    2.7072  -10.2576 C   0  0  0  0  0
    5.6631    2.9380   -8.9589 C   0  0  0  0  0
    2.7975    1.5496   -3.6413 N   0  0  0  0  0
    4.7476    1.7656   -5.6641 N   0  0  0  0  0
   -1.1125    1.4557    0.3901 N   0  0  0  0  0
    2.6033   -1.6411   -2.3748 O   0  0  0  0  0
    3.9416   -0.3970   -1.0484 O   0  0  0  0  0
    6.5417    3.0295   -6.4244 O   0  0  0  0  0
   -3.5971    1.7234    1.0657 O   0  0  0  0  0
   -2.9723    2.0035   -1.3490 O   0  0  0  0  0
    4.9512    2.2970   -7.8941 O   0  0  0  0  0
   -2.7701    1.3541   -0.0681 S   0  0  0  0  0
  1 10  1  0  0  0
  2 11  1  0  0  0
  3  6  1  0  0  0
  4  8  1  0  0  0
  5 12  1  0  0  0
  6 13  1  0  0  0
  7  9  1  0  0  0
 10 24  1  0  0  0
 11 26  1  0  0  0
 13 27  1  0  0  0
 14 25  1  0  0  0
 14 32  1  0  0  0
 15 17  1  0  0  0
 15 24  1  0  0  0
 16 18  1  0  0  0
 16 24  1  0  0  0
 17 25  1  0  0  0
 18 25  1  0  0  0
 19  7  1  0  0  0
 20  8  1  0  0  0
 21  9  1  0  0  0
 22 23  1  0  0  0
 23 32  1  0  0  0
 33 12  1  0  0  0
 33 26  1  0  0  0
  1  2  2  0  0  0
  3 11  2  0  0  0
  4  7  2  0  0  0
  5  9  2  0  0  0
  6 10  2  0  0  0
  8 12  2  0  0  0
 13 28  2  0  0  0
 14 29  2  0  0  0
 33 30  2  0  0  0
 33 31  2  0  0  0
M  CHG  1  27  -1
M  END
> <rmsd>
0.528258979

$$$$
ZINC32961626


 33 35  0  0  0  0  0  0  0  0999 V2000
    1.0088    2.8737   -2.2082 C   0  0  0  0  0
   -0.0478    2.7602   -1.3046 C   0  0  0  0  0
    0.9933    0.8086   -0.3325 C   0  0  0  0  0
   -2.7217   -2.6317    0.4804 C   0  0  0  0  0
   -2.9038   -0.8268   -1.6391 C   0  0  0  0  0
    2.0498    0.9222   -1.2363 C   0  0  0  0  0
   -2.8490   -3.1015   -0.8268 C   0  0  0  0  0
   -2.6855   -1.2594    0.7279 C   0  0  0  0  0
   -2.9401   -2.1991   -1.8865 C   0  0  0  0  0
    2.0575    1.9548   -2.1740 C   0  0  0  0  0
   -0.0555    1.7276   -0.3668 C   0  0  0  0  0
   -2.7765   -0.3569   -0.3319 C   0  0  0  0  0
    3.1464   -0.0627   -1.1786 C   0  0  0  0  0
    5.9987    3.2158   -5.8167 C   0  0  0  0  0
    4.2603    2.9116   -2.6926 C   0  0  0  0  0
    2.8276    2.0237   -4.5304 C   0  0  0  0  0
    5.5000    2.5091   -3.4880 C   0  0  0  0  0
    4.0887    1.6383   -5.3028 C   0  0  0  0  0
   -2.8858   -4.5751   -1.0674 C   0  0  0  0  0
   -2.5475   -0.7889    2.1390 C   0  0  0  0  0
   -3.0773   -2.6790   -3.2942 C   0  0  0  0  0
    5.7335    3.5318   -9.4643 C   0  0  0  0  0
    6.3327    3.7945   -8.0993 C   0  0  0  0  0
    3.1080    2.0861   -3.0894 N   0  0  0  0  0
    5.2130    2.4916   -4.9186 N   0  0  0  0  0
   -1.1372    1.6117    0.5579 N   0  0  0  0  0
    3.0508   -1.1338   -1.8846 O   0  0  0  0  0
    4.1586    0.1848   -0.4243 O   0  0  0  0  0
    6.9639    3.9053   -5.4929 O   0  0  0  0  0
   -3.6868    1.6727    1.0016 O   0  0  0  0  0
   -2.8663    2.0466   -1.3406 O   0  0  0  0  0
    5.5785    3.0799   -7.1133 O   0  0  0  0  0
   -2.7323    1.3905   -0.0543 S   0  0  0  0  0
  1 10  1  0  0  0
  2 11  1  0  0  0
  3  6  1  0  0  0
  4  8  1  0  0  0
  5 12  1  0  0  0
  6 13  1  0  0  0
  7  9  1  0  0  0
 10 24  1  0  0  0
 11 26  1  0  0  0
 13 27  1  0  0  0
 14 25  1  0  0  0
 14 32  1  0  0  0
 15 17  1  0  0  0
 15 24  1  0  0  0
 16 18  1  0  0  0
 16 24  1  0  0  0
 17 25  1  0  0  0
 18 25  1  0  0  0
 19  7  1  0  0  0
 20  8  1  0  0  0
 21  9  1  0  0  0
 22 23  1  0  0  0
 23 32  1  0  0  0
 33 12  1  0  0  0
 33 26  1  0  0  0
  1  2  2  0  0  0
  3 11  2  0  0  0
  4  7  2  0  0  0
  5  9  2  0  0  0
  6 10  2  0  0  0
  8 12  2  0  0  0
 13 28  2  0  0  0
 14 29  2  0  0  0
 33 30  2  0  0  0
 33 31  2  0  0  0
M  CHG  1  27  -1
M  END
> <rmsd>
0.709974527

$$$$
ZINC12372118


 35 37  0  0  0  0  0  0  0  0999 V2000
   -4.9871   -3.2490   -1.1616 C   0  0  0  0  0
    3.0604   -1.8059   -7.2471 C   0  0  0  0  0
   -5.2555   -2.4501   -0.0501 C   0  0  0  0  0
   -3.7410   -3.1811   -1.7848 C   0  0  0  0  0
    2.6027   -0.4914   -7.3373 C   0  0  0  0  0
    3.0742   -2.4565   -6.0133 C   0  0  0  0  0
   -4.2779   -1.5832    0.4380 C   0  0  0  0  0
   -2.7634   -2.3142   -1.2966 C   0  0  0  0  0
    2.1590    0.1727   -6.1937 C   0  0  0  0  0
    2.6304   -1.7925   -4.8698 C   0  0  0  0  0
    0.7511    3.3304    0.1963 C   0  0  0  0  0
    2.1079    3.4397   -0.1918 C   0  0  0  0  0
   -3.0318   -1.5152   -0.1851 C   0  0  0  0  0
    2.1728   -0.4780   -4.9598 C   0  0  0  0  0
    0.6327    4.0328    1.3731 C   0  0  0  0  0
    2.7217    4.2012    0.7753 C   0  0  0  0  0
   -0.3562    2.6160   -0.4897 C   0  0  0  0  0
    2.7582    2.8889   -1.3451 C   0  0  0  0  0
   -3.2938    1.6447   -0.0038 C   0  0  0  0  0
    3.9294    0.1366   -2.3900 C   0  0  0  0  0
   -0.4926    4.3062    2.2799 C   0  0  0  0  0
    4.1004    4.6768    0.9659 C   0  0  0  0  0
   -1.9864   -0.5880    0.3369 C   0  0  0  0  0
    1.6951    0.2371   -3.7282 C   0  0  0  0  0
   -2.0427    0.8062   -0.2997 C   0  0  0  0  0
    2.8140    0.9911   -3.0078 C   0  0  0  0  0
   -0.9374    1.6310    0.2542 N   0  0  0  0  0
    2.2550    1.6807   -1.8672 N   0  0  0  0  0
   -3.5485    1.7917    1.2266 O   0  0  0  0  0
    3.5234   -0.7724   -1.6096 O   0  0  0  0  0
   -0.6511    2.9299   -1.6399 O   0  0  0  0  0
    3.7540    3.4498   -1.8616 O   0  0  0  0  0
   -3.9163    2.0914   -1.0074 O   0  0  0  0  0
    5.1097    0.4295   -2.7296 O   0  0  0  0  0
    1.8294    4.5668    1.7327 O   0  0  0  0  0
  1  3  1  0  0  0
  2  5  1  0  0  0
  4  8  1  0  0  0
  6 10  1  0  0  0
  7 13  1  0  0  0
  9 14  1  0  0  0
 11 12  1  0  0  0
 11 17  1  0  0  0
 12 18  1  0  0  0
 15 35  1  0  0  0
 16 35  1  0  0  0
 17 27  1  0  0  0
 18 28  1  0  0  0
 19 29  1  0  0  0
 20 30  1  0  0  0
 21 15  1  0  0  0
 22 16  1  0  0  0
 23 13  1  0  0  0
 23 25  1  0  0  0
 24 14  1  0  0  0
 24 26  1  0  0  0
 25 19  1  0  0  0
 25 27  1  0  0  0
 26 20  1  0  0  0
 26 28  1  0  0  0
  1  4  2  0  0  0
  2  6  2  0  0  0
  3  7  2  0  0  0
  5  9  2  0  0  0
  8 13  2  0  0  0
 10 14  2  0  0  0
 11 15  2  0  0  0
 12 16  2  0  0  0
 17 31  2  0  0  0
 18 32  2  0  0  0
 19 33  2  0  0  0
 20 34  2  0  0  0
M  CHG  2  29  -1  30  -1
M  END
> <rmsd>
0.677091956

$$$$
ZINC04215263


 32 35  0  0  0  0  0  0  0  0999 V2000
   -4.4868   -1.1679    0.4470 C   0  0  0  0  0
   -3.4002   -0.4800   -0.0510 C   0  0  0  0  0
    7.5266    0.1550    2.0673 C   0  0  0  0  0
   -2.9975   -2.4349   -0.9598 C   0  0  0  0  0
    3.0784   -0.1619   -0.2856 C   0  0  0  0  0
    3.6272   -0.6226    0.8636 C   0  0  0  0  0
    1.1606    1.2787   -1.1148 C   0  0  0  0  0
   -3.1240    0.9526    0.2398 C   0  0  0  0  0
    3.5190   -0.7406   -1.6252 C   0  0  0  0  0
   -1.9027    1.5953   -0.3633 C   0  0  0  0  0
    3.1241   -0.2299    2.2509 C   0  0  0  0  0
    0.4977    2.0150    0.0844 C   0  0  0  0  0
    1.7365    1.5612    0.8869 C   0  0  0  0  0
    8.6181    1.1295    1.9918 C   0  0  0  0  0
   -4.3896    3.6413    2.0007 C   0  0  0  0  0
    4.7818   -1.5922    0.9261 C   0  0  0  0  0
   -2.5449   -1.2050   -0.8576 N   0  0  0  0  0
    7.2896   -0.6124    3.1688 N   0  0  0  0  0
    6.6696   -0.0520    1.0642 N   0  0  0  0  0
    6.2302   -1.3560    2.8754 N   0  0  0  0  0
   -3.9156    1.6414    1.0055 N   0  0  0  0  0
    5.8998   -0.9935    1.6281 N   0  0  0  0  0
    2.0860    0.7650   -0.2757 N   0  0  0  0  0
   -2.3941   -3.4158   -1.6821 N   0  0  0  0  0
   -0.8108    1.4747    0.4503 N   0  0  0  0  0
    2.8507   -1.7340   -2.0136 O   0  0  0  0  0
    0.9258    1.1337   -2.2915 O   0  0  0  0  0
    4.4909   -0.1461   -2.1601 O   0  0  0  0  0
   -2.0110    2.1250   -1.4574 O   0  0  0  0  0
   -3.4736    2.9631    1.1550 O   0  0  0  0  0
   -4.4472   -2.7887   -0.1124 S   0  0  0  0  0
    1.4298    0.4482    2.2775 S   0  0  0  0  0
  1 31  1  0  0  0
  2  8  1  0  0  0
  2 17  1  0  0  0
  3 18  1  0  0  0
  4 24  1  0  0  0
  4 31  1  0  0  0
  5  9  1  0  0  0
  5 23  1  0  0  0
  7 23  1  0  0  0
  8 10  1  0  0  0
  9 26  1  0  0  0
 10 25  1  0  0  0
 11  6  1  0  0  0
 11 32  1  0  0  0
 12  7  1  0  0  0
 12 13  1  0  0  0
 12 25  1  0  0  0
 13 23  1  0  0  0
 13 32  1  0  0  0
 14  3  1  0  0  0
 15 30  1  0  0  0
 16  6  1  0  0  0
 16 22  1  0  0  0
 21 30  1  0  0  0
 22 19  1  0  0  0
 22 20  1  0  0  0
  1  2  2  0  0  0
  3 19  2  0  0  0
  4 17  2  0  0  0
  5  6  2  0  0  0
  7 27  2  0  0  0
  8 21  2  0  0  0
  9 28  2  0  0  0
 10 29  2  0  0  0
 18 20  2  0  0  0
M  CHG  1  26  -1
M  END
> <rmsd>
0.102866992

$$$$
ZINC04215263


 32 35  0  0  0  0  0  0  0  0999 V2000
   -4.2081   -1.2866    0.2900 C   0  0  0  0  0
   -3.1731   -0.4830   -0.1400 C   0  0  0  0  0
    7.5723    1.0456    2.4066 C   0  0  0  0  0
   -2.5626   -2.3535   -1.1088 C   0  0  0  0  0
    3.2533    0.4282   -0.1207 C   0  0  0  0  0
    3.8032   -0.0292    1.0293 C   0  0  0  0  0
    1.2403    1.7236   -0.9638 C   0  0  0  0  0
   -3.0393    0.9551    0.2166 C   0  0  0  0  0
    3.7897   -0.0513   -1.4645 C   0  0  0  0  0
   -1.8625    1.7304   -0.3151 C   0  0  0  0  0
    3.2200    0.2576    2.4111 C   0  0  0  0  0
    0.4729    2.3457    0.2377 C   0  0  0  0  0
    1.7205    1.9721    1.0674 C   0  0  0  0  0
    8.5718    2.1170    2.4100 C   0  0  0  0  0
   -4.6044    3.4418    2.0327 C   0  0  0  0  0
    5.0391   -0.8924    1.0969 C   0  0  0  0  0
   -2.2283   -1.0931   -0.9418 N   0  0  0  0  0
    7.3699    0.2142    3.4679 N   0  0  0  0  0
    6.7720    0.8046    1.3651 N   0  0  0  0  0
    6.3936   -0.6090    3.1064 N   0  0  0  0  0
   -3.9160    1.5366    0.9785 N   0  0  0  0  0
    6.0734   -0.2254    1.8628 N   0  0  0  0  0
    2.1803    1.2605   -0.1116 N   0  0  0  0  0
   -1.8479   -3.2445   -1.8458 N   0  0  0  0  0
   -0.7920    1.6745    0.5333 N   0  0  0  0  0
    3.2288   -1.0837   -1.9160 O   0  0  0  0  0
    1.0594    1.6078   -2.1533 O   0  0  0  0  0
    4.7204    0.6506   -1.9393 O   0  0  0  0  0
   -1.9823    2.2938   -1.3911 O   0  0  0  0  0
   -3.6022    2.8854    1.1958 O   0  0  0  0  0
   -4.0013   -2.8721   -0.3303 S   0  0  0  0  0
    1.4708    0.7782    2.4011 S   0  0  0  0  0
  1 31  1  0  0  0
  2  8  1  0  0  0
  2 17  1  0  0  0
  3 18  1  0  0  0
  4 24  1  0  0  0
  4 31  1  0  0  0
  5  9  1  0  0  0
  5 23  1  0  0  0
  7 23  1  0  0  0
  8 10  1  0  0  0
  9 26  1  0  0  0
 10 25  1  0  0  0
 11  6  1  0  0  0
 11 32  1  0  0  0
 12  7  1  0  0  0
 12 13  1  0  0  0
 12 25  1  0  0  0
 13 23  1  0  0  0
 13 32  1  0  0  0
 14  3  1  0  0  0
 15 30  1  0  0  0
 16  6  1  0  0  0
 16 22  1  0  0  0
 21 30  1  0  0  0
 22 19  1  0  0  0
 22 20  1  0  0  0
  1  2  2  0  0  0
  3 19  2  0  0  0
  4 17  2  0  0  0
  5  6  2  0  0  0
  7 27  2  0  0  0
  8 21  2  0  0  0
  9 28  2  0  0  0
 10 29  2  0  0  0
 18 20  2  0  0  0
M  CHG  1  26  -1
M  END
> <rmsd>
0.40264371

$$$$
ZINC04215263


 32 35  0  0  0  0  0  0  0  0999 V2000
   -4.2081   -1.2864    0.2899 C   0  0  0  0  0
   -3.1731   -0.4828   -0.1401 C   0  0  0  0  0
    7.3450    0.2906    3.3710 C   0  0  0  0  0
   -2.5626   -2.3533   -1.1089 C   0  0  0  0  0
    3.2533    0.4283   -0.1207 C   0  0  0  0  0
    3.8032   -0.0292    1.0293 C   0  0  0  0  0
    1.2404    1.7237   -0.9638 C   0  0  0  0  0
   -3.0392    0.9553    0.2166 C   0  0  0  0  0
    3.7898   -0.0512   -1.4645 C   0  0  0  0  0
   -1.8625    1.7305   -0.3151 C   0  0  0  0  0
    3.2200    0.2575    2.4112 C   0  0  0  0  0
    0.4730    2.3458    0.2377 C   0  0  0  0  0
    1.7206    1.9721    1.0675 C   0  0  0  0  0
    8.0691    0.3310    4.6443 C   0  0  0  0  0
   -4.6043    3.4420    2.0328 C   0  0  0  0  0
    5.0391   -0.8924    1.0969 C   0  0  0  0  0
   -2.2283   -1.0929   -0.9419 N   0  0  0  0  0
    7.5956    1.1532    2.3455 N   0  0  0  0  0
    6.3870   -0.6025    3.1103 N   0  0  0  0  0
    6.7648    0.8108    1.3686 N   0  0  0  0  0
   -3.9159    1.5368    0.9785 N   0  0  0  0  0
    6.0734   -0.2254    1.8629 N   0  0  0  0  0
    2.1803    1.2606   -0.1115 N   0  0  0  0  0
   -1.8479   -3.2443   -1.8460 N   0  0  0  0  0
   -0.7920    1.6746    0.5333 N   0  0  0  0  0
    3.2288   -1.0835   -1.9160 O   0  0  0  0  0
    1.0595    1.6080   -2.1532 O   0  0  0  0  0
    4.7205    0.6507   -1.9392 O   0  0  0  0  0
   -1.9822    2.2940   -1.3910 O   0  0  0  0  0
   -3.6022    2.8856    1.1959 O   0  0  0  0  0
   -4.0013   -2.8719   -0.3305 S   0  0  0  0  0
    1.4708    0.7783    2.4011 S   0  0  0  0  0
  1 31  1  0  0  0
  2  8  1  0  0  0
  2 17  1  0  0  0
  3 18  1  0  0  0
  4 24  1  0  0  0
  4 31  1  0  0  0
  5  9  1  0  0  0
  5 23  1  0  0  0
  7 23  1  0  0  0
  8 10  1  0  0  0
  9 26  1  0  0  0
 10 25  1  0  0  0
 11  6  1  0  0  0
 11 32  1  0  0  0
 12  7  1  0  0  0
 12 13  1  0  0  0
 12 25  1  0  0  0
 13 23  1  0  0  0
 13 32  1  0  0  0
 14  3  1  0  0  0
 15 30  1  0  0  0
 16  6  1  0  0  0
 16 22  1  0  0  0
 21 30  1  0  0  0
 22 19  1  0  0  0
 22 20  1  0  0  0
  1  2  2  0  0  0
  3 19  2  0  0  0
  4 17  2  0  0  0
  5  6  2  0  0  0
  7 27  2  0  0  0
  8 21  2  0  0  0
  9 28  2  0  0  0
 10 29  2  0  0  0
 18 20  2  0  0  0
M  CHG  1  26  -1
M  END
> <rmsd>
0.402820915

$$$$
ZINC04215263


 32 35  0  0  0  0  0  0  0  0999 V2000
   -4.4868   -1.1677    0.4468 C   0  0  0  0  0
   -3.4002   -0.4798   -0.0511 C   0  0  0  0  0
    7.2681   -0.5378    3.0697 C   0  0  0  0  0
   -2.9975   -2.4347   -0.9600 C   0  0  0  0  0
    3.0784   -0.1618   -0.2856 C   0  0  0  0  0
    3.6272   -0.6226    0.8636 C   0  0  0  0  0
    1.1607    1.2789   -1.1147 C   0  0  0  0  0
   -3.1239    0.9528    0.2398 C   0  0  0  0  0
    3.5190   -0.7405   -1.6252 C   0  0  0  0  0
   -1.9026    1.5955   -0.3633 C   0  0  0  0  0
    3.1241   -0.2299    2.2509 C   0  0  0  0  0
    0.4978    2.0151    0.0845 C   0  0  0  0  0
    1.7366    1.5613    0.8870 C   0  0  0  0  0
    8.0398   -0.5143    4.3151 C   0  0  0  0  0
   -4.3895    3.6414    2.0008 C   0  0  0  0  0
    4.7818   -1.5922    0.9261 C   0  0  0  0  0
   -2.5448   -1.2048   -0.8577 N   0  0  0  0  0
    7.5572    0.2575    2.0008 N   0  0  0  0  0
    6.2244   -1.3487    2.8792 N   0  0  0  0  0
    6.6631   -0.0451    1.0676 N   0  0  0  0  0
   -3.9156    1.6415    1.0055 N   0  0  0  0  0
    5.8998   -0.9935    1.6282 N   0  0  0  0  0
    2.0860    0.7651   -0.2756 N   0  0  0  0  0
   -2.3941   -3.4156   -1.6823 N   0  0  0  0  0
   -0.8107    1.4748    0.4504 N   0  0  0  0  0
    2.8508   -1.7338   -2.0136 O   0  0  0  0  0
    0.9259    1.1339   -2.2915 O   0  0  0  0  0
    4.4910   -0.1459   -2.1601 O   0  0  0  0  0
   -2.0109    2.1252   -1.4574 O   0  0  0  0  0
   -3.4735    2.9633    1.1550 O   0  0  0  0  0
   -4.4472   -2.7885   -0.1126 S   0  0  0  0  0
    1.4299    0.4483    2.2775 S   0  0  0  0  0
  1 31  1  0  0  0
  2  8  1  0  0  0
  2 17  1  0  0  0
  3 18  1  0  0  0
  4 24  1  0  0  0
  4 31  1  0  0  0
  5  9  1  0  0  0
  5 23  1  0  0  0
  7 23  1  0  0  0
  8 10  1  0  0  0
  9 26  1  0  0  0
 10 25  1  0  0  0
 11  6  1  0  0  0
 11 32  1  0  0  0
 12  7  1  0  0  0
 12 13  1  0  0  0
 12 25  1  0  0  0
 13 23  1  0  0  0
 13 32  1  0  0  0
 14  3  1  0  0  0
 15 30  1  0  0  0
 16  6  1  0  0  0
 16 22  1  0  0  0
 21 30  1  0  0  0
 22 19  1  0  0  0
 22 20  1  0  0  0
  1  2  2  0  0  0
  3 19  2  0  0  0
  4 17  2  0  0  0
  5  6  2  0  0  0
  7 27  2  0  0  0
  8 21  2  0  0  0
  9 28  2  0  0  0
 10 29  2  0  0  0
 18 20  2  0  0  0
M  CHG  1  26  -1
M  END
> <rmsd>
0.102891855

$$$$
ZINC04215263


 32 35  0  0  0  0  0  0  0  0999 V2000
   -2.5780   -1.2647   -0.8728 C   0  0  0  0  0
   -3.3840   -0.4824   -0.0725 C   0  0  0  0  0
    7.5344    0.1578    2.0874 C   0  0  0  0  0
   -4.5211   -2.3541    0.0438 C   0  0  0  0  0
    3.0948   -0.1513   -0.2828 C   0  0  0  0  0
    3.6405   -0.6186    0.8652 C   0  0  0  0  0
    1.1773    1.2915   -1.1089 C   0  0  0  0  0
   -3.1113    0.9488    0.2287 C   0  0  0  0  0
    3.5410   -0.7203   -1.6246 C   0  0  0  0  0
   -1.8891    1.5977   -0.3659 C   0  0  0  0  0
    3.1320   -0.2360    2.2534 C   0  0  0  0  0
    0.5090    2.0186    0.0928 C   0  0  0  0  0
    1.7459    1.5616    0.8965 C   0  0  0  0  0
    8.6244    1.1348    2.0222 C   0  0  0  0  0
   -4.3877    3.6235    2.0031 C   0  0  0  0  0
    4.7966   -1.5866    0.9253 C   0  0  0  0  0
   -4.4989   -1.1052    0.4537 N   0  0  0  0  0
    7.2950   -0.6172    3.1830 N   0  0  0  0  0
    6.6811   -0.0440    1.0801 N   0  0  0  0  0
    6.2379   -1.3608    2.8811 N   0  0  0  0  0
   -3.9068    1.6310    0.9962 N   0  0  0  0  0
    5.9112   -0.9905    1.6351 N   0  0  0  0  0
    2.1007    0.7738   -0.2701 N   0  0  0  0  0
   -5.4857   -3.2524    0.3762 N   0  0  0  0  0
   -0.7998    1.4735    0.4507 N   0  0  0  0  0
    2.8759   -1.7123   -2.0219 O   0  0  0  0  0
    0.9468    1.1538   -2.2875 O   0  0  0  0  0
    4.5137   -0.1205   -2.1523 O   0  0  0  0  0
   -1.9947    2.1344   -1.4569 O   0  0  0  0  0
   -3.4676    2.9526    1.1560 O   0  0  0  0  0
   -3.2320   -2.8467   -0.9762 S   0  0  0  0  0
    1.4364    0.4390    2.2786 S   0  0  0  0  0
  1 31  1  0  0  0
  2  8  1  0  0  0
  2 17  1  0  0  0
  3 18  1  0  0  0
  4 24  1  0  0  0
  4 31  1  0  0  0
  5  9  1  0  0  0
  5 23  1  0  0  0
  7 23  1  0  0  0
  8 10  1  0  0  0
  9 26  1  0  0  0
 10 25  1  0  0  0
 11  6  1  0  0  0
 11 32  1  0  0  0
 12  7  1  0  0  0
 12 13  1  0  0  0
 12 25  1  0  0  0
 13 23  1  0  0  0
 13 32  1  0  0  0
 14  3  1  0  0  0
 15 30  1  0  0  0
 16  6  1  0  0  0
 16 22  1  0  0  0
 21 30  1  0  0  0
 22 19  1  0  0  0
 22 20  1  0  0  0
  1  2  2  0  0  0
  3 19  2  0  0  0
  4 17  2  0  0  0
  5  6  2  0  0  0
  7 27  2  0  0  0
  8 21  2  0  0  0
  9 28  2  0  0  0
 10 29  2  0  0  0
 18 20  2  0  0  0
M  CHG  1  26  -1
M  END
> <rmsd>
0.0605660267

$$$$
ZINC04215263


 32 35  0  0  0  0  0  0  0  0999 V2000
   -2.2554   -1.1550   -0.9591 C   0  0  0  0  0
   -3.1565   -0.4826   -0.1603 C   0  0  0  0  0
    7.5774    1.0465    2.4341 C   0  0  0  0  0
   -4.1209   -2.4523   -0.1594 C   0  0  0  0  0
    3.2683    0.4387   -0.1124 C   0  0  0  0  0
    3.8149   -0.0253    1.0365 C   0  0  0  0  0
    1.2562    1.7364   -0.9542 C   0  0  0  0  0
   -3.0262    0.9534    0.2062 C   0  0  0  0  0
    3.8102   -0.0311   -1.4574 C   0  0  0  0  0
   -1.8489    1.7339   -0.3163 C   0  0  0  0  0
    3.2264    0.2515    2.4181 C   0  0  0  0  0
    0.4836    2.3494    0.2487 C   0  0  0  0  0
    1.7289    1.9724    1.0803 C   0  0  0  0  0
    8.5752    2.1195    2.4479 C   0  0  0  0  0
   -4.6018    3.4257    2.0329 C   0  0  0  0  0
    5.0520   -0.8870    1.1028 C   0  0  0  0  0
   -4.2270   -1.2247    0.2989 N   0  0  0  0  0
    7.3727    0.2079    3.4892 N   0  0  0  0  0
    6.7812    0.8111    1.3882 N   0  0  0  0  0
    6.3989   -0.6145    3.1189 N   0  0  0  0  0
   -3.9066    1.5285    0.9688 N   0  0  0  0  0
    6.0825   -0.2233    1.8767 N   0  0  0  0  0
    2.1939    1.2693   -0.1016 N   0  0  0  0  0
   -5.0102   -3.4469    0.1013 N   0  0  0  0  0
   -0.7813    1.6742    0.5354 N   0  0  0  0  0
    3.2525   -1.0614   -1.9176 O   0  0  0  0  0
    1.0797    1.6280   -2.1450 O   0  0  0  0  0
    4.7414    0.6754   -1.9244 O   0  0  0  0  0
   -1.9658    2.3042   -1.3890 O   0  0  0  0  0
   -3.5958    2.8763    1.1960 O   0  0  0  0  0
   -2.7581   -2.7837   -1.1482 S   0  0  0  0  0
    1.4764    0.7695    2.4053 S   0  0  0  0  0
  1 31  1  0  0  0
  2  8  1  0  0  0
  2 17  1  0  0  0
  3 18  1  0  0  0
  4 24  1  0  0  0
  4 31  1  0  0  0
  5  9  1  0  0  0
  5 23  1  0  0  0
  7 23  1  0  0  0
  8 10  1  0  0  0
  9 26  1  0  0  0
 10 25  1  0  0  0
 11  6  1  0  0  0
 11 32  1  0  0  0
 12  7  1  0  0  0
 12 13  1  0  0  0
 12 25  1  0  0  0
 13 23  1  0  0  0
 13 32  1  0  0  0
 14  3  1  0  0  0
 15 30  1  0  0  0
 16  6  1  0  0  0
 16 22  1  0  0  0
 21 30  1  0  0  0
 22 19  1  0  0  0
 22 20  1  0  0  0
  1  2  2  0  0  0
  3 19  2  0  0  0
  4 17  2  0  0  0
  5  6  2  0  0  0
  7 27  2  0  0  0
  8 21  2  0  0  0
  9 28  2  0  0  0
 10 29  2  0  0  0
 18 20  2  0  0  0
M  CHG  1  26  -1
M  END
> <rmsd>
0.359841675

$$$$
ZINC04215263


 32 35  0  0  0  0  0  0  0  0999 V2000
   -2.2554   -1.1548   -0.9592 C   0  0  0  0  0
   -3.1564   -0.4824   -0.1603 C   0  0  0  0  0
    7.3479    0.2849    3.3927 C   0  0  0  0  0
   -4.1209   -2.4521   -0.1596 C   0  0  0  0  0
    3.2683    0.4388   -0.1124 C   0  0  0  0  0
    3.8149   -0.0253    1.0365 C   0  0  0  0  0
    1.2563    1.7365   -0.9541 C   0  0  0  0  0
   -3.0262    0.9535    0.2061 C   0  0  0  0  0
    3.8103   -0.0310   -1.4574 C   0  0  0  0  0
   -1.8488    1.7341   -0.3163 C   0  0  0  0  0
    3.2264    0.2515    2.4182 C   0  0  0  0  0
    0.4837    2.3495    0.2488 C   0  0  0  0  0
    1.7289    1.9724    1.0804 C   0  0  0  0  0
    8.0675    0.3181    4.6688 C   0  0  0  0  0
   -4.6017    3.4258    2.0330 C   0  0  0  0  0
    5.0520   -0.8870    1.1028 C   0  0  0  0  0
   -4.2270   -1.2246    0.2988 N   0  0  0  0  0
    7.6007    1.1546    2.3737 N   0  0  0  0  0
    6.3924   -0.6080    3.1228 N   0  0  0  0  0
    6.7740    0.8172    1.3917 N   0  0  0  0  0
   -3.9065    1.5287    0.9688 N   0  0  0  0  0
    6.0825   -0.2233    1.8768 N   0  0  0  0  0
    2.1940    1.2694   -0.1015 N   0  0  0  0  0
   -5.0102   -3.4467    0.1011 N   0  0  0  0  0
   -0.7812    1.6744    0.5355 N   0  0  0  0  0
    3.2526   -1.0612   -1.9176 O   0  0  0  0  0
    1.0797    1.6282   -2.1449 O   0  0  0  0  0
    4.7415    0.6755   -1.9243 O   0  0  0  0  0
   -1.9657    2.3044   -1.3889 O   0  0  0  0  0
   -3.5957    2.8765    1.1960 O   0  0  0  0  0
   -2.7581   -2.7835   -1.1484 S   0  0  0  0  0
    1.4764    0.7695    2.4053 S   0  0  0  0  0
  1 31  1  0  0  0
  2  8  1  0  0  0
  2 17  1  0  0  0
  3 18  1  0  0  0
  4 24  1  0  0  0
  4 31  1  0  0  0
  5  9  1  0  0  0
  5 23  1  0  0  0
  7 23  1  0  0  0
  8 10  1  0  0  0
  9 26  1  0  0  0
 10 25  1  0  0  0
 11  6  1  0  0  0
 11 32  1  0  0  0
 12  7  1  0  0  0
 12 13  1  0  0  0
 12 25  1  0  0  0
 13 23  1  0  0  0
 13 32  1  0  0  0
 14  3  1  0  0  0
 15 30  1  0  0  0
 16  6  1  0  0  0
 16 22  1  0  0  0
 21 30  1  0  0  0
 22 19  1  0  0  0
 22 20  1  0  0  0
  1  2  2  0  0  0
  3 19  2  0  0  0
  4 17  2  0  0  0
  5  6  2  0  0  0
  7 27  2  0  0  0
  8 21  2  0  0  0
  9 28  2  0  0  0
 10 29  2  0  0  0
 18 20  2  0  0  0
M  CHG  1  26  -1
M  END
> <rmsd>
0.360028923

$$$$
ZINC04215263


 32 35  0  0  0  0  0  0  0  0999 V2000
   -2.5780   -1.2645   -0.8729 C   0  0  0  0  0
   -3.3840   -0.4822   -0.0726 C   0  0  0  0  0
    7.2737   -0.5420    3.0843 C   0  0  0  0  0
   -4.5211   -2.3539    0.0436 C   0  0  0  0  0
    3.0948   -0.1512   -0.2828 C   0  0  0  0  0
    3.6405   -0.6186    0.8653 C   0  0  0  0  0
    1.1773    1.2916   -1.1089 C   0  0  0  0  0
   -3.1113    0.9489    0.2287 C   0  0  0  0  0
    3.5411   -0.7201   -1.6246 C   0  0  0  0  0
   -1.8890    1.5978   -0.3659 C   0  0  0  0  0
    3.1320   -0.2360    2.2534 C   0  0  0  0  0
    0.5091    2.0187    0.0929 C   0  0  0  0  0
    1.7459    1.5617    0.8966 C   0  0  0  0  0
    8.0411   -0.5254    4.3325 C   0  0  0  0  0
   -4.3877    3.6236    2.0031 C   0  0  0  0  0
    4.7966   -1.5866    0.9253 C   0  0  0  0  0
   -4.4989   -1.1050    0.4535 N   0  0  0  0  0
    7.5650    0.2609    2.0217 N   0  0  0  0  0
    6.2321   -1.3535    2.8849 N   0  0  0  0  0
    6.6747   -0.0371    1.0835 N   0  0  0  0  0
   -3.9068    1.6312    0.9962 N   0  0  0  0  0
    5.9112   -0.9905    1.6351 N   0  0  0  0  0
    2.1008    0.7739   -0.2700 N   0  0  0  0  0
   -5.4857   -3.2522    0.3760 N   0  0  0  0  0
   -0.7997    1.4736    0.4507 N   0  0  0  0  0
    2.8759   -1.7121   -2.0219 O   0  0  0  0  0
    0.9469    1.1540   -2.2874 O   0  0  0  0  0
    4.5138   -0.1204   -2.1522 O   0  0  0  0  0
   -1.9946    2.1346   -1.4568 O   0  0  0  0  0
   -3.4676    2.9527    1.1561 O   0  0  0  0  0
   -3.2320   -2.8465   -0.9764 S   0  0  0  0  0
    1.4364    0.4390    2.2786 S   0  0  0  0  0
  1 31  1  0  0  0
  2  8  1  0  0  0
  2 17  1  0  0  0
  3 18  1  0  0  0
  4 24  1  0  0  0
  4 31  1  0  0  0
  5  9  1  0  0  0
  5 23  1  0  0  0
  7 23  1  0  0  0
  8 10  1  0  0  0
  9 26  1  0  0  0
 10 25  1  0  0  0
 11  6  1  0  0  0
 11 32  1  0  0  0
 12  7  1  0  0  0
 12 13  1  0  0  0
 12 25  1  0  0  0
 13 23  1  0  0  0
 13 32  1  0  0  0
 14  3  1  0  0  0
 15 30  1  0  0  0
 16  6  1  0  0  0
 16 22  1  0  0  0
 21 30  1  0  0  0
 22 19  1  0  0  0
 22 20  1  0  0  0
  1  2  2  0  0  0
  3 19  2  0  0  0
  4 17  2  0  0  0
  5  6  2  0  0  0
  7 27  2  0  0  0
  8 21  2  0  0  0
  9 28  2  0  0  0
 10 29  2  0  0  0
 18 20  2  0  0  0
M  CHG  1  26  -1
M  END
> <rmsd>
0.0605439581

$$$$
ZINC65735220


 32 35  0  0  0  0  0  0  0  0999 V2000
   -4.1578   -1.3069    0.2865 C   0  0  0  0  0
   -3.1548   -0.4828   -0.1791 C   0  0  0  0  0
    7.6516    1.0151   -0.8674 C   0  0  0  0  0
   -2.5878   -2.3204   -1.2336 C   0  0  0  0  0
    3.1506   -0.0415    1.9079 C   0  0  0  0  0
    3.8119   -0.1224    0.7318 C   0  0  0  0  0
    1.1920    1.7817   -1.1865 C   0  0  0  0  0
   -3.0108    0.9460    0.2096 C   0  0  0  0  0
   -1.8720    1.7458   -0.3664 C   0  0  0  0  0
    3.0426   -0.7333   -1.5005 C   0  0  0  0  0
    3.3291    0.4492   -0.5958 C   0  0  0  0  0
    0.4870    2.3656    0.0690 C   0  0  0  0  0
    1.7838    1.9798    0.8085 C   0  0  0  0  0
    8.6511    1.3034   -1.8992 C   0  0  0  0  0
   -4.4863    3.3677    2.1818 C   0  0  0  0  0
    5.1620   -0.7958    0.6853 C   0  0  0  0  0
   -2.2534   -1.0623   -1.0506 N   0  0  0  0  0
    7.4138    1.8429    0.1894 N   0  0  0  0  0
    6.8860   -0.0790   -0.8858 N   0  0  0  0  0
    6.4493    1.2661    0.8957 N   0  0  0  0  0
   -3.8463    1.4985    1.0366 N   0  0  0  0  0
    6.1706    0.1387    0.2267 N   0  0  0  0  0
    2.1469    1.2478   -0.3944 N   0  0  0  0  0
   -1.9104   -3.1843   -2.0353 N   0  0  0  0  0
   -0.7541    1.6755    0.4174 N   0  0  0  0  0
    2.1735   -1.5419   -1.0717 O   0  0  0  0  0
    0.9839    1.7423   -2.3763 O   0  0  0  0  0
   -2.0572    2.3378   -1.4174 O   0  0  0  0  0
    3.7136   -0.7566   -2.5703 O   0  0  0  0  0
   -3.5302    2.8434    1.2736 O   0  0  0  0  0
   -3.9759   -2.8727   -0.3891 S   0  0  0  0  0
    1.6211    0.7579    2.1373 S   0  0  0  0  0
  1 31  1  0  0  0
  2  8  1  0  0  0
  2 17  1  0  0  0
  3 18  1  0  0  0
  4 24  1  0  0  0
  4 31  1  0  0  0
  5 32  1  0  0  0
  7 23  1  0  0  0
  8  9  1  0  0  0
  9 25  1  0  0  0
 10 26  1  0  0  0
 11  6  1  0  0  0
 11 10  1  0  0  0
 11 23  1  0  0  0
 12  7  1  0  0  0
 12 13  1  0  0  0
 12 25  1  0  0  0
 13 23  1  0  0  0
 13 32  1  0  0  0
 14  3  1  0  0  0
 15 30  1  0  0  0
 16  6  1  0  0  0
 16 22  1  0  0  0
 21 30  1  0  0  0
 22 19  1  0  0  0
 22 20  1  0  0  0
  1  2  2  0  0  0
  3 19  2  0  0  0
  4 17  2  0  0  0
  5  6  2  0  0  0
  7 27  2  0  0  0
  8 21  2  0  0  0
  9 28  2  0  0  0
 10 29  2  0  0  0
 18 20  2  0  0  0
M  CHG  1  26  -1
M  END
> <rmsd>
0.484743178

$$$$
ZINC65735220


 32 35  0  0  0  0  0  0  0  0999 V2000
   -4.1579   -1.3069    0.2863 C   0  0  0  0  0
   -3.1548   -0.4827   -0.1793 C   0  0  0  0  0
    7.3920    1.7662    0.0920 C   0  0  0  0  0
   -2.5878   -2.3203   -1.2338 C   0  0  0  0  0
    3.1505   -0.0413    1.9079 C   0  0  0  0  0
    3.8119   -0.1223    0.7319 C   0  0  0  0  0
    1.1919    1.7818   -1.1865 C   0  0  0  0  0
   -3.0109    0.9460    0.2095 C   0  0  0  0  0
   -1.8720    1.7458   -0.3665 C   0  0  0  0  0
    3.0426   -0.7331   -1.5004 C   0  0  0  0  0
    3.3290    0.4494   -0.5958 C   0  0  0  0  0
    0.4869    2.3657    0.0690 C   0  0  0  0  0
    1.7837    1.9799    0.8085 C   0  0  0  0  0
    8.0736    3.0354    0.3594 C   0  0  0  0  0
   -4.4865    3.3677    2.1817 C   0  0  0  0  0
    5.1619   -0.7956    0.6854 C   0  0  0  0  0
   -2.2534   -1.0622   -1.0507 N   0  0  0  0  0
    7.6769    0.9819   -0.9861 N   0  0  0  0  0
    6.4426    1.2714    0.8902 N   0  0  0  0  0
    6.8787   -0.0742   -0.8910 N   0  0  0  0  0
   -3.8465    1.4985    1.0364 N   0  0  0  0  0
    6.1706    0.1390    0.2268 N   0  0  0  0  0
    2.1468    1.2480   -0.3944 N   0  0  0  0  0
   -1.9104   -3.1843   -2.0354 N   0  0  0  0  0
   -0.7542    1.6756    0.4173 N   0  0  0  0  0
    2.1735   -1.5417   -1.0717 O   0  0  0  0  0
    0.9839    1.7424   -2.3763 O   0  0  0  0  0
   -2.0573    2.3379   -1.4175 O   0  0  0  0  0
    3.7136   -0.7564   -2.5703 O   0  0  0  0  0
   -3.5303    2.8434    1.2735 O   0  0  0  0  0
   -3.9759   -2.8727   -0.3893 S   0  0  0  0  0
    1.6210    0.7580    2.1373 S   0  0  0  0  0
  1 31  1  0  0  0
  2  8  1  0  0  0
  2 17  1  0  0  0
  3 18  1  0  0  0
  4 24  1  0  0  0
  4 31  1  0  0  0
  5 32  1  0  0  0
  7 23  1  0  0  0
  8  9  1  0  0  0
  9 25  1  0  0  0
 10 26  1  0  0  0
 11  6  1  0  0  0
 11 10  1  0  0  0
 11 23  1  0  0  0
 12  7  1  0  0  0
 12 13  1  0  0  0
 12 25  1  0  0  0
 13 23  1  0  0  0
 13 32  1  0  0  0
 14  3  1  0  0  0
 15 30  1  0  0  0
 16  6  1  0  0  0
 16 22  1  0  0  0
 21 30  1  0  0  0
 22 19  1  0  0  0
 22 20  1  0  0  0
  1  2  2  0  0  0
  3 19  2  0  0  0
  4 17  2  0  0  0
  5  6  2  0  0  0
  7 27  2  0  0  0
  8 21  2  0  0  0
  9 28  2  0  0  0
 10 29  2  0  0  0
 18 20  2  0  0  0
M  CHG  1  26  -1
M  END
> <rmsd>
0.484862179

$$$$
ZINC65735220


 32 35  0  0  0  0  0  0  0  0999 V2000
   -2.2797   -1.1212   -1.0713 C   0  0  0  0  0
   -3.1386   -0.4804   -0.2031 C   0  0  0  0  0
    7.6688    1.0349   -0.8337 C   0  0  0  0  0
   -4.0878   -2.4575   -0.2065 C   0  0  0  0  0
    3.1575   -0.0494    1.9139 C   0  0  0  0  0
    3.8238   -0.1200    0.7400 C   0  0  0  0  0
    1.2097    1.7970   -1.1735 C   0  0  0  0  0
   -2.9979    0.9453    0.1980 C   0  0  0  0  0
   -1.8576    1.7510   -0.3667 C   0  0  0  0  0
    3.0645   -0.7133   -1.5004 C   0  0  0  0  0
    3.3459    0.4620   -0.5849 C   0  0  0  0  0
    0.4989    2.3698    0.0837 C   0  0  0  0  0
    1.7930    1.9793    0.8254 C   0  0  0  0  0
    8.6723    1.3327   -1.8589 C   0  0  0  0  0
   -4.4844    3.3491    2.1838 C   0  0  0  0  0
    5.1748   -0.7914    0.6936 C   0  0  0  0  0
   -4.1763   -1.2449    0.2935 N   0  0  0  0  0
    7.4257    1.8536    0.2288 N   0  0  0  0  0
    6.9045   -0.0599   -0.8643 N   0  0  0  0  0
    6.4589    1.2701    0.9264 N   0  0  0  0  0
   -3.8375    1.4901    1.0259 N   0  0  0  0  0
    6.1843    0.1479    0.2469 N   0  0  0  0  0
    2.1619    1.2577   -0.3819 N   0  0  0  0  0
   -4.9539   -3.4670    0.0743 N   0  0  0  0  0
   -0.7429    1.6756    0.4212 N   0  0  0  0  0
    2.1945   -1.5263   -1.0820 O   0  0  0  0  0
    1.0067    1.7672   -2.3645 O   0  0  0  0  0
   -2.0391    2.3515   -1.4136 O   0  0  0  0  0
    3.7400   -0.7270   -2.5676 O   0  0  0  0  0
   -3.5238    2.8333    1.2754 O   0  0  0  0  0
   -2.7809   -2.7480   -1.2802 S   0  0  0  0  0
    1.6261    0.7464    2.1435 S   0  0  0  0  0
  1 31  1  0  0  0
  2  8  1  0  0  0
  2 17  1  0  0  0
  3 18  1  0  0  0
  4 24  1  0  0  0
  4 31  1  0  0  0
  5 32  1  0  0  0
  7 23  1  0  0  0
  8  9  1  0  0  0
  9 25  1  0  0  0
 10 26  1  0  0  0
 11  6  1  0  0  0
 11 10  1  0  0  0
 11 23  1  0  0  0
 12  7  1  0  0  0
 12 13  1  0  0  0
 12 25  1  0  0  0
 13 23  1  0  0  0
 13 32  1  0  0  0
 14  3  1  0  0  0
 15 30  1  0  0  0
 16  6  1  0  0  0
 16 22  1  0  0  0
 21 30  1  0  0  0
 22 19  1  0  0  0
 22 20  1  0  0  0
  1  2  2  0  0  0
  3 19  2  0  0  0
  4 17  2  0  0  0
  5  6  2  0  0  0
  7 27  2  0  0  0
  8 21  2  0  0  0
  9 28  2  0  0  0
 10 29  2  0  0  0
 18 20  2  0  0  0
M  CHG  1  26  -1
M  END
> <rmsd>
0.44698143

$$$$
ZINC65735220


 32 35  0  0  0  0  0  0  0  0999 V2000
   -2.2800   -1.1210   -1.0712 C   0  0  0  0  0
   -3.1389   -0.4801   -0.2030 C   0  0  0  0  0
    7.4043    1.7776    0.1304 C   0  0  0  0  0
   -4.0881   -2.4573   -0.2063 C   0  0  0  0  0
    3.1573   -0.0493    1.9139 C   0  0  0  0  0
    3.8236   -0.1199    0.7400 C   0  0  0  0  0
    1.2095    1.7971   -1.1736 C   0  0  0  0  0
   -2.9981    0.9455    0.1981 C   0  0  0  0  0
   -1.8578    1.7512   -0.3666 C   0  0  0  0  0
    3.0642   -0.7132   -1.5005 C   0  0  0  0  0
    3.3456    0.4621   -0.5850 C   0  0  0  0  0
    0.4987    2.3700    0.0837 C   0  0  0  0  0
    1.7928    1.9795    0.8254 C   0  0  0  0  0
    8.0834    3.0453    0.4111 C   0  0  0  0  0
   -4.4845    3.3494    2.1840 C   0  0  0  0  0
    5.1745   -0.7913    0.6935 C   0  0  0  0  0
   -4.1765   -1.2447    0.2936 N   0  0  0  0  0
    7.6945    1.0024   -0.9529 N   0  0  0  0  0
    6.4521    1.2752    0.9206 N   0  0  0  0  0
    6.8970   -0.0553   -0.8698 N   0  0  0  0  0
   -3.8377    1.4904    1.0260 N   0  0  0  0  0
    6.1840    0.1480    0.2468 N   0  0  0  0  0
    2.1617    1.2578   -0.3820 N   0  0  0  0  0
   -4.9542   -3.4668    0.0745 N   0  0  0  0  0
   -0.7431    1.6758    0.4212 N   0  0  0  0  0
    2.1942   -1.5262   -1.0820 O   0  0  0  0  0
    1.0065    1.7673   -2.3645 O   0  0  0  0  0
   -2.0393    2.3517   -1.4135 O   0  0  0  0  0
    3.7396   -0.7269   -2.5677 O   0  0  0  0  0
   -3.5240    2.8336    1.2755 O   0  0  0  0  0
   -2.7812   -2.7478   -1.2800 S   0  0  0  0  0
    1.6259    0.7465    2.1435 S   0  0  0  0  0
  1 31  1  0  0  0
  2  8  1  0  0  0
  2 17  1  0  0  0
  3 18  1  0  0  0
  4 24  1  0  0  0
  4 31  1  0  0  0
  5 32  1  0  0  0
  7 23  1  0  0  0
  8  9  1  0  0  0
  9 25  1  0  0  0
 10 26  1  0  0  0
 11  6  1  0  0  0
 11 10  1  0  0  0
 11 23  1  0  0  0
 12  7  1  0  0  0
 12 13  1  0  0  0
 12 25  1  0  0  0
 13 23  1  0  0  0
 13 32  1  0  0  0
 14  3  1  0  0  0
 15 30  1  0  0  0
 16  6  1  0  0  0
 16 22  1  0  0  0
 21 30  1  0  0  0
 22 19  1  0  0  0
 22 20  1  0  0  0
  1  2  2  0  0  0
  3 19  2  0  0  0
  4 17  2  0  0  0
  5  6  2  0  0  0
  7 27  2  0  0  0
  8 21  2  0  0  0
  9 28  2  0  0  0
 10 29  2  0  0  0
 18 20  2  0  0  0
M  CHG  1  26  -1
M  END
> <rmsd>
0.446861446

$$$$
ZINC21601025


 34 37  0  0  0  0  0  0  0  0999 V2000
    4.8536   -2.6841    2.6296 C   0  0  0  0  0
    5.3618   -3.2666    1.4685 C   0  0  0  0  0
   -3.3545   -0.6680   -1.5068 C   0  0  0  0  0
   -2.1542   -1.1036    0.5442 C   0  0  0  0  0
    4.2013   -1.4528    2.5641 C   0  0  0  0  0
    5.2179   -2.6179    0.2421 C   0  0  0  0  0
   -3.7331   -2.0090   -1.5701 C   0  0  0  0  0
   -2.5329   -2.4446    0.4809 C   0  0  0  0  0
   -4.7577    2.9045    1.4899 C   0  0  0  0  0
   -4.3194    3.9667    0.7349 C   0  0  0  0  0
   -2.5650   -0.2152   -0.4497 C   0  0  0  0  0
    4.0574   -0.8041    1.3377 C   0  0  0  0  0
    4.5657   -1.3867    0.1767 C   0  0  0  0  0
   -3.3223   -2.8973   -0.5762 C   0  0  0  0  0
   -3.1843    2.1329    0.2819 C   0  0  0  0  0
    3.0485    2.7147    2.0391 C   0  0  0  0  0
    3.7998    1.6030    1.9927 C   0  0  0  0  0
    1.7687    2.6746    1.3276 C   0  0  0  0  0
    1.4821    1.4606    0.5007 C   0  0  0  0  0
    0.3125    1.2865   -0.3983 C   0  0  0  0  0
    5.1648    1.6578    2.6352 C   0  0  0  0  0
   -2.5321    4.1968   -0.9984 C   0  0  0  0  0
   -2.1555    1.2405   -0.3803 C   0  0  0  0  0
   -4.0468    1.7660    1.2035 N   0  0  0  0  0
    2.2621    0.4273    0.5030 N   0  0  0  0  0
   -3.3110    3.4571   -0.0337 N   0  0  0  0  0
    3.3854    0.4563    1.2979 N   0  0  0  0  0
   -0.8783    1.3749    0.2826 N   0  0  0  0  0
    4.4334   -0.7462   -1.0873 N   0  0  0  0  0
    3.4207   -0.9881   -1.7849 O   0  0  0  0  0
    0.9499    3.5778    1.3627 O   0  0  0  0  0
    0.4830    1.0940   -1.5888 O   0  0  0  0  0
    5.3334    0.0404   -1.4640 O   0  0  0  0  0
   -3.7912   -4.5512   -0.6529 Cl  0  0  0  0  0
  1  2  1  0  0  0
  3 11  1  0  0  0
  4  8  1  0  0  0
  5 12  1  0  0  0
  6 13  1  0  0  0
  7 14  1  0  0  0
  9 24  1  0  0  0
 10 26  1  0  0  0
 12 27  1  0  0  0
 13 29  1  0  0  0
 14 34  1  0  0  0
 15 26  1  0  0  0
 16 18  1  0  0  0
 17 27  1  0  0  0
 18 19  1  0  0  0
 19 20  1  0  0  0
 20 28  1  0  0  0
 21 17  1  0  0  0
 22 26  1  0  0  0
 23 11  1  0  0  0
 23 15  1  0  0  0
 23 28  1  0  0  0
 27 25  1  0  0  0
 29 30  1  0  0  0
  1  5  2  0  0  0
  2  6  2  0  0  0
  3  7  2  0  0  0
  4 11  2  0  0  0
  8 14  2  0  0  0
  9 10  2  0  0  0
 12 13  2  0  0  0
 15 24  2  0  0  0
 16 17  2  0  0  0
 18 31  2  0  0  0
 19 25  2  0  0  0
 20 32  2  0  0  0
 29 33  2  0  0  0
M  CHG  2  29   1  30  -1
M  END
> <rmsd>
0.556285262

$$$$
ZINC77285466


 32 34  0  0  0  0  0  0  0  0999 V2000
   -4.2622   -1.2760    0.3290 C   0  0  0  0  0
   -3.2506   -0.4575   -0.1282 C   0  0  0  0  0
   -2.6773   -2.3022   -1.1668 C   0  0  0  0  0
    3.7531    0.0118    0.7509 C   0  0  0  0  0
    3.1569    0.4874   -0.3674 C   0  0  0  0  0
    1.1130    1.7926   -1.0917 C   0  0  0  0  0
    5.9261   -0.5432   -0.1240 C   0  0  0  0  0
    4.9424   -0.8188    0.7419 C   0  0  0  0  0
   -3.1109    0.9746    0.2498 C   0  0  0  0  0
    3.6316    0.0595   -1.7550 C   0  0  0  0  0
   -1.9620    1.7676   -0.3152 C   0  0  0  0  0
   -4.2924    4.8641    2.4349 C   0  0  0  0  0
    3.2410    0.2746    2.1649 C   0  0  0  0  0
    0.3905    2.3886    0.1519 C   0  0  0  0  0
    1.6743    2.0075    0.9235 C   0  0  0  0  0
   -6.1860    7.1913    4.5336 C   0  0  0  0  0
   -4.6144    3.4159    2.1762 C   0  0  0  0  0
   -5.0651    6.7666    3.6089 C   0  0  0  0  0
   -2.3406   -1.0443   -0.9857 N   0  0  0  0  0
   -3.9587    1.5356    1.0583 N   0  0  0  0  0
    2.0853    1.3184   -0.2844 N   0  0  0  0  0
   -1.9924   -3.1720   -1.9559 N   0  0  0  0  0
   -0.8568    1.7033    0.4868 N   0  0  0  0  0
    3.5581   -1.1764   -1.9735 O   0  0  0  0  0
    0.8847    1.6989   -2.2748 O   0  0  0  0  0
    4.0293    1.0031   -2.4845 O   0  0  0  0  0
   -2.1298    2.3504   -1.3745 O   0  0  0  0  0
   -3.3348    5.4642    1.9658 O   0  0  0  0  0
   -5.2379    5.3869    3.2698 O   0  0  0  0  0
   -3.6445    2.8822    1.2882 O   0  0  0  0  0
   -4.0775   -2.8456   -0.3367 S   0  0  0  0  0
    1.4890    0.7902    2.2454 S   0  0  0  0  0
  1 31  1  0  0  0
  2  9  1  0  0  0
  2 19  1  0  0  0
  3 22  1  0  0  0
  3 31  1  0  0  0
  4  8  1  0  0  0
  5 10  1  0  0  0
  5 21  1  0  0  0
  6 21  1  0  0  0
  9 11  1  0  0  0
 10 24  1  0  0  0
 11 23  1  0  0  0
 12 29  1  0  0  0
 13  4  1  0  0  0
 13 32  1  0  0  0
 14  6  1  0  0  0
 14 15  1  0  0  0
 14 23  1  0  0  0
 15 21  1  0  0  0
 15 32  1  0  0  0
 16 18  1  0  0  0
 17 12  1  0  0  0
 17 30  1  0  0  0
 18 29  1  0  0  0
 20 30  1  0  0  0
  1  2  2  0  0  0
  3 19  2  0  0  0
  4  5  2  0  0  0
  6 25  2  0  0  0
  7  8  2  0  0  0
  9 20  2  0  0  0
 10 26  2  0  0  0
 11 27  2  0  0  0
 12 28  2  0  0  0
M  CHG  1  24  -1
M  END
> <rmsd>
0.349098265

$$$$
ZINC77285466


 32 34  0  0  0  0  0  0  0  0999 V2000
   -4.4856   -1.1678    0.4518 C   0  0  0  0  0
   -3.3971   -0.4824   -0.0460 C   0  0  0  0  0
   -3.0004   -2.4376   -0.9568 C   0  0  0  0  0
    3.6147   -0.6345    0.8794 C   0  0  0  0  0
    3.0729   -0.1776   -0.2738 C   0  0  0  0  0
    1.1688    1.2685   -1.1037 C   0  0  0  0  0
    5.7279   -1.4525    0.0666 C   0  0  0  0  0
    4.7179   -1.5747    0.9374 C   0  0  0  0  0
   -3.1210    0.9512    0.2404 C   0  0  0  0  0
    3.5106   -0.7391   -1.6255 C   0  0  0  0  0
   -1.8979    1.5910   -0.3618 C   0  0  0  0  0
   -3.9304    5.0710    2.1564 C   0  0  0  0  0
    3.1236   -0.2317    2.2677 C   0  0  0  0  0
    0.5015    2.0114    0.0906 C   0  0  0  0  0
    1.7384    1.5595    0.8995 C   0  0  0  0  0
   -5.5996    7.7021    4.0792 C   0  0  0  0  0
   -4.3901    3.6467    1.9881 C   0  0  0  0  0
   -4.5207    7.1117    3.1964 C   0  0  0  0  0
   -2.5441   -1.2090   -0.8536 N   0  0  0  0  0
   -3.9144    1.6429    1.0013 N   0  0  0  0  0
    2.0866    0.7565   -0.2567 N   0  0  0  0  0
   -2.3992   -3.4192   -1.6804 N   0  0  0  0  0
   -0.8081    1.4730    0.4550 N   0  0  0  0  0
    3.3187   -1.9738   -1.7646 O   0  0  0  0  0
    0.9383    1.1202   -2.2809 O   0  0  0  0  0
    4.0016    0.1121   -2.4099 O   0  0  0  0  0
   -2.0031    2.1168   -1.4582 O   0  0  0  0  0
   -2.9169    5.5439    1.6603 O   0  0  0  0  0
   -4.8249    5.7359    2.9452 O   0  0  0  0  0
   -3.4722    2.9651    1.1473 O   0  0  0  0  0
   -4.4507   -2.7881   -0.1091 S   0  0  0  0  0
    1.4295    0.4547    2.2951 S   0  0  0  0  0
  1 31  1  0  0  0
  2  9  1  0  0  0
  2 19  1  0  0  0
  3 22  1  0  0  0
  3 31  1  0  0  0
  4  8  1  0  0  0
  5 10  1  0  0  0
  5 21  1  0  0  0
  6 21  1  0  0  0
  9 11  1  0  0  0
 10 24  1  0  0  0
 11 23  1  0  0  0
 12 29  1  0  0  0
 13  4  1  0  0  0
 13 32  1  0  0  0
 14  6  1  0  0  0
 14 15  1  0  0  0
 14 23  1  0  0  0
 15 21  1  0  0  0
 15 32  1  0  0  0
 16 18  1  0  0  0
 17 12  1  0  0  0
 17 30  1  0  0  0
 18 29  1  0  0  0
 20 30  1  0  0  0
  1  2  2  0  0  0
  3 19  2  0  0  0
  4  5  2  0  0  0
  6 25  2  0  0  0
  7  8  2  0  0  0
  9 20  2  0  0  0
 10 26  2  0  0  0
 11 27  2  0  0  0
 12 28  2  0  0  0
M  CHG  1  24  -1
M  END
> <rmsd>
0.101271145

$$$$
ZINC77285466


 32 34  0  0  0  0  0  0  0  0999 V2000
   -2.3658   -1.1026   -1.0072 C   0  0  0  0  0
   -3.2372   -0.4534   -0.1578 C   0  0  0  0  0
   -4.1838   -2.4318   -0.1524 C   0  0  0  0  0
    3.7624    0.0062    0.7582 C   0  0  0  0  0
    3.1714    0.4930   -0.3580 C   0  0  0  0  0
    1.1310    1.8056   -1.0787 C   0  0  0  0  0
    5.9394   -0.5403   -0.1121 C   0  0  0  0  0
    4.9517   -0.8244    0.7465 C   0  0  0  0  0
   -3.0991    0.9748    0.2351 C   0  0  0  0  0
    3.6525    0.0789   -1.7476 C   0  0  0  0  0
   -1.9475    1.7733   -0.3167 C   0  0  0  0  0
   -4.2904    4.8425    2.4533 C   0  0  0  0  0
    3.2439    0.2549    2.1724 C   0  0  0  0  0
    0.4029    2.3893    0.1675 C   0  0  0  0  0
    1.6830    2.0004    0.9411 C   0  0  0  0  0
   -6.1934    7.1489    4.5664 C   0  0  0  0  0
   -4.6113    3.3970    2.1787 C   0  0  0  0  0
   -5.0683    6.7333    3.6427 C   0  0  0  0  0
   -4.2806   -1.2140    0.3330 N   0  0  0  0  0
   -3.9506    1.5278    1.0452 N   0  0  0  0  0
    2.0995    1.3233   -0.2716 N   0  0  0  0  0
   -5.0530   -3.4389    0.1279 N   0  0  0  0  0
   -0.8461    1.7009    0.4897 N   0  0  0  0  0
    3.5799   -1.1548   -1.9788 O   0  0  0  0  0
    0.9081    1.7238   -2.2637 O   0  0  0  0  0
    4.0536    1.0297   -2.4658 O   0  0  0  0  0
   -2.1104    2.3666   -1.3708 O   0  0  0  0  0
   -3.3306    5.4471    1.9947 O   0  0  0  0  0
   -5.2397    5.3570    3.2891 O   0  0  0  0  0
   -3.6374    2.8721    1.2900 O   0  0  0  0  0
   -2.8622   -2.7323   -1.2049 S   0  0  0  0  0
    1.4916    0.7700    2.2500 S   0  0  0  0  0
  1 31  1  0  0  0
  2  9  1  0  0  0
  2 19  1  0  0  0
  3 22  1  0  0  0
  3 31  1  0  0  0
  4  8  1  0  0  0
  5 10  1  0  0  0
  5 21  1  0  0  0
  6 21  1  0  0  0
  9 11  1  0  0  0
 10 24  1  0  0  0
 11 23  1  0  0  0
 12 29  1  0  0  0
 13  4  1  0  0  0
 13 32  1  0  0  0
 14  6  1  0  0  0
 14 15  1  0  0  0
 14 23  1  0  0  0
 15 21  1  0  0  0
 15 32  1  0  0  0
 16 18  1  0  0  0
 17 12  1  0  0  0
 17 30  1  0  0  0
 18 29  1  0  0  0
 20 30  1  0  0  0
  1  2  2  0  0  0
  3 19  2  0  0  0
  4  5  2  0  0  0
  6 25  2  0  0  0
  7  8  2  0  0  0
  9 20  2  0  0  0
 10 26  2  0  0  0
 11 27  2  0  0  0
 12 28  2  0  0  0
M  CHG  1  24  -1
M  END
> <rmsd>
0.309961408

$$$$
ZINC77285466


 32 34  0  0  0  0  0  0  0  0999 V2000
   -2.5755   -1.2667   -0.8716 C   0  0  0  0  0
   -3.3832   -0.4825   -0.0749 C   0  0  0  0  0
   -4.5164   -2.3561    0.0496 C   0  0  0  0  0
    3.6247   -0.6385    0.8788 C   0  0  0  0  0
    3.0875   -0.1714   -0.2725 C   0  0  0  0  0
    1.1860    1.2810   -1.0971 C   0  0  0  0  0
    5.7419   -1.4476    0.0675 C   0  0  0  0  0
    4.7283   -1.5786    0.9329 C   0  0  0  0  0
   -3.1093    0.9485    0.2258 C   0  0  0  0  0
    3.5314   -0.7202   -1.6273 C   0  0  0  0  0
   -1.8840    1.5947   -0.3652 C   0  0  0  0  0
   -3.9296    5.0500    2.1761 C   0  0  0  0  0
    3.1275   -0.2488    2.2687 C   0  0  0  0  0
    0.5131    2.0124    0.1012 C   0  0  0  0  0
    1.7469    1.5539    0.9111 C   0  0  0  0  0
   -5.6088    7.6622    4.1159 C   0  0  0  0  0
   -4.3876    3.6271    1.9928 C   0  0  0  0  0
   -4.5257    7.0808    3.2324 C   0  0  0  0  0
   -4.4969   -1.1054    0.4539 N   0  0  0  0  0
   -3.9064    1.6328    0.9897 N   0  0  0  0  0
    2.1005    0.7619   -0.2509 N   0  0  0  0  0
   -5.4798   -3.2545    0.3862 N   0  0  0  0  0
   -0.7976    1.4699    0.4550 N   0  0  0  0  0
    3.3409   -1.9537   -1.7786 O   0  0  0  0  0
    0.9606    1.1433   -2.2765 O   0  0  0  0  0
    4.0250    0.1385   -2.4019 O   0  0  0  0  0
   -1.9850    2.1304   -1.4573 O   0  0  0  0  0
   -2.9143    5.5282    1.6888 O   0  0  0  0  0
   -4.8279    5.7071    2.9672 O   0  0  0  0  0
   -3.4657    2.9538    1.1498 O   0  0  0  0  0
   -3.2261   -2.8507   -0.9679 S   0  0  0  0  0
    1.4328    0.4362    2.2952 S   0  0  0  0  0
  1 31  1  0  0  0
  2  9  1  0  0  0
  2 19  1  0  0  0
  3 22  1  0  0  0
  3 31  1  0  0  0
  4  8  1  0  0  0
  5 10  1  0  0  0
  5 21  1  0  0  0
  6 21  1  0  0  0
  9 11  1  0  0  0
 10 24  1  0  0  0
 11 23  1  0  0  0
 12 29  1  0  0  0
 13  4  1  0  0  0
 13 32  1  0  0  0
 14  6  1  0  0  0
 14 15  1  0  0  0
 14 23  1  0  0  0
 15 21  1  0  0  0
 15 32  1  0  0  0
 16 18  1  0  0  0
 17 12  1  0  0  0
 17 30  1  0  0  0
 18 29  1  0  0  0
 20 30  1  0  0  0
  1  2  2  0  0  0
  3 19  2  0  0  0
  4  5  2  0  0  0
  6 25  2  0  0  0
  7  8  2  0  0  0
  9 20  2  0  0  0
 10 26  2  0  0  0
 11 27  2  0  0  0
 12 28  2  0  0  0
M  CHG  1  24  -1
M  END
> <rmsd>
0.0591591224

$$$$
ZINC65735216


 32 35  0  0  0  0  0  0  0  0999 V2000
   -4.1580   -1.3063    0.2860 C   0  0  0  0  0
   -3.1549   -0.4821   -0.1794 C   0  0  0  0  0
   -2.5880   -2.3193   -1.2343 C   0  0  0  0  0
    3.1504   -0.0416    1.9078 C   0  0  0  0  0
    3.8118   -0.1221    0.7319 C   0  0  0  0  0
    1.1918    1.7825   -1.1858 C   0  0  0  0  0
   -3.0109    0.9465    0.2099 C   0  0  0  0  0
   -1.8720    1.7465   -0.3658 C   0  0  0  0  0
    3.0426   -0.7324   -1.5006 C   0  0  0  0  0
    8.5511   -0.2658    0.1980 C   0  0  0  0  0
    8.1348    1.0945   -0.3237 C   0  0  0  0  0
    7.5940   -0.5105    1.3516 C   0  0  0  0  0
    6.6196    1.0131   -0.3163 C   0  0  0  0  0
    3.3290    0.4497   -0.5956 C   0  0  0  0  0
    0.4869    2.3661    0.0697 C   0  0  0  0  0
    1.7837    1.9800    0.8091 C   0  0  0  0  0
    5.8669    1.0971    2.0133 C   0  0  0  0  0
   -4.4865    3.3678    2.1827 C   0  0  0  0  0
    5.1618   -0.7955    0.6852 C   0  0  0  0  0
   -2.2535   -1.0613   -1.0509 N   0  0  0  0  0
   -3.8464    1.4989    1.0370 N   0  0  0  0  0
    2.1468    1.2485   -0.3940 N   0  0  0  0  0
   -1.9106   -3.1831   -2.0362 N   0  0  0  0  0
   -0.7542    1.6760    0.4179 N   0  0  0  0  0
    6.2961    0.1695    0.9144 N   0  0  0  0  0
    2.1733   -1.5410   -1.0721 O   0  0  0  0  0
    0.9839    1.7436   -2.3757 O   0  0  0  0  0
   -2.0573    2.3389   -1.4167 O   0  0  0  0  0
    3.7135   -0.7553   -2.5704 O   0  0  0  0  0
   -3.5302    2.8437    1.2745 O   0  0  0  0  0
   -3.9761   -2.8720   -0.3901 S   0  0  0  0  0
    1.6209    0.7577    2.1377 S   0  0  0  0  0
  1 31  1  0  0  0
  2  7  1  0  0  0
  2 20  1  0  0  0
  3 23  1  0  0  0
  3 31  1  0  0  0
  4 32  1  0  0  0
  6 22  1  0  0  0
  7  8  1  0  0  0
  8 24  1  0  0  0
  9 26  1  0  0  0
 10 11  1  0  0  0
 10 12  1  0  0  0
 11 13  1  0  0  0
 12 25  1  0  0  0
 13 25  1  0  0  0
 14  5  1  0  0  0
 14  9  1  0  0  0
 14 22  1  0  0  0
 15  6  1  0  0  0
 15 16  1  0  0  0
 15 24  1  0  0  0
 16 22  1  0  0  0
 16 32  1  0  0  0
 17 25  1  0  0  0
 18 30  1  0  0  0
 19  5  1  0  0  0
 19 25  1  0  0  0
 21 30  1  0  0  0
  1  2  2  0  0  0
  3 20  2  0  0  0
  4  5  2  0  0  0
  6 27  2  0  0  0
  7 21  2  0  0  0
  8 28  2  0  0  0
  9 29  2  0  0  0
M  CHG  2  25   1  26  -1
M  END
> <rmsd>
0.484917074

$$$$
ZINC65735216


 32 35  0  0  0  0  0  0  0  0999 V2000
   -2.2798   -1.1214   -1.0713 C   0  0  0  0  0
   -3.1386   -0.4805   -0.2030 C   0  0  0  0  0
   -4.0876   -2.4577   -0.2060 C   0  0  0  0  0
    3.1579   -0.0487    1.9125 C   0  0  0  0  0
    3.8240   -0.1193    0.7387 C   0  0  0  0  0
    1.2093    1.7971   -1.1746 C   0  0  0  0  0
   -2.9979    0.9452    0.1979 C   0  0  0  0  0
   -1.8577    1.7510   -0.3671 C   0  0  0  0  0
    3.0643   -0.7132   -1.5015 C   0  0  0  0  0
    8.5655   -0.2532    0.2224 C   0  0  0  0  0
    8.1496    1.1106   -0.2903 C   0  0  0  0  0
    7.6041   -0.5080    1.3703 C   0  0  0  0  0
    6.6345    1.0274   -0.2896 C   0  0  0  0  0
    3.3457    0.4623   -0.5863 C   0  0  0  0  0
    0.4987    2.3700    0.0826 C   0  0  0  0  0
    1.7930    1.9798    0.8241 C   0  0  0  0  0
    5.8725    1.0924    2.0376 C   0  0  0  0  0
   -4.4842    3.3493    2.1836 C   0  0  0  0  0
    5.1750   -0.7907    0.6920 C   0  0  0  0  0
   -4.1761   -1.2451    0.2939 N   0  0  0  0  0
   -3.8373    1.4901    1.0259 N   0  0  0  0  0
    2.1618    1.2580   -0.3832 N   0  0  0  0  0
   -4.9535   -3.4672    0.0753 N   0  0  0  0  0
   -0.7430    1.6758    0.4205 N   0  0  0  0  0
    6.3072    0.1738    0.9332 N   0  0  0  0  0
    2.1944   -1.5261   -1.0828 O   0  0  0  0  0
    1.0061    1.7671   -2.3656 O   0  0  0  0  0
   -2.0396    2.3513   -1.4141 O   0  0  0  0  0
    3.7395   -0.7270   -2.5688 O   0  0  0  0  0
   -3.5238    2.8334    1.2751 O   0  0  0  0  0
   -2.7809   -2.7483   -1.2798 S   0  0  0  0  0
    1.6265    0.7470    2.1425 S   0  0  0  0  0
  1 31  1  0  0  0
  2  7  1  0  0  0
  2 20  1  0  0  0
  3 23  1  0  0  0
  3 31  1  0  0  0
  4 32  1  0  0  0
  6 22  1  0  0  0
  7  8  1  0  0  0
  8 24  1  0  0  0
  9 26  1  0  0  0
 10 11  1  0  0  0
 10 12  1  0  0  0
 11 13  1  0  0  0
 12 25  1  0  0  0
 13 25  1  0  0  0
 14  5  1  0  0  0
 14  9  1  0  0  0
 14 22  1  0  0  0
 15  6  1  0  0  0
 15 16  1  0  0  0
 15 24  1  0  0  0
 16 22  1  0  0  0
 16 32  1  0  0  0
 17 25  1  0  0  0
 18 30  1  0  0  0
 19  5  1  0  0  0
 19 25  1  0  0  0
 21 30  1  0  0  0
  1  2  2  0  0  0
  3 20  2  0  0  0
  4  5  2  0  0  0
  6 27  2  0  0  0
  7 21  2  0  0  0
  8 28  2  0  0  0
  9 29  2  0  0  0
M  CHG  2  25   1  26  -1
M  END
> <rmsd>
0.446831405

$$$$
ZINC65735216


 32 35  0  0  0  0  0  0  0  0999 V2000
   -4.1580   -1.3065    0.2865 C   0  0  0  0  0
   -3.1550   -0.4822   -0.1791 C   0  0  0  0  0
   -2.5881   -2.3196   -1.2339 C   0  0  0  0  0
    3.1505   -0.0413    1.9077 C   0  0  0  0  0
    3.8118   -0.1220    0.7318 C   0  0  0  0  0
    1.1916    1.7824   -1.1861 C   0  0  0  0  0
   -3.0110    0.9464    0.2100 C   0  0  0  0  0
   -1.8721    1.7463   -0.3659 C   0  0  0  0  0
    3.0424   -0.7325   -1.5006 C   0  0  0  0  0
    6.3076    2.4097    0.0365 C   0  0  0  0  0
    6.5874    2.4745    1.5243 C   0  0  0  0  0
    6.6657    0.9797   -0.3290 C   0  0  0  0  0
    6.0142    1.1661    2.0361 C   0  0  0  0  0
    3.3289    0.4497   -0.5958 C   0  0  0  0  0
    0.4868    2.3661    0.0695 C   0  0  0  0  0
    1.7836    1.9801    0.8088 C   0  0  0  0  0
    7.4927   -0.6460    1.3075 C   0  0  0  0  0
   -4.4865    3.3678    2.1826 C   0  0  0  0  0
    5.1618   -0.7953    0.6850 C   0  0  0  0  0
   -2.2536   -1.0616   -1.0506 N   0  0  0  0  0
   -3.8464    1.4988    1.0371 N   0  0  0  0  0
    2.1467    1.2485   -0.3942 N   0  0  0  0  0
   -1.9107   -3.1834   -2.0357 N   0  0  0  0  0
   -0.7543    1.6760    0.4178 N   0  0  0  0  0
    6.2961    0.1697    0.9140 N   0  0  0  0  0
    2.1732   -1.5411   -1.0720 O   0  0  0  0  0
    0.9836    1.7433   -2.3760 O   0  0  0  0  0
   -2.0575    2.3386   -1.4168 O   0  0  0  0  0
    3.7133   -0.7556   -2.5705 O   0  0  0  0  0
   -3.5303    2.8436    1.2744 O   0  0  0  0  0
   -3.9761   -2.8722   -0.3894 S   0  0  0  0  0
    1.6210    0.7580    2.1376 S   0  0  0  0  0
  1 31  1  0  0  0
  2  7  1  0  0  0
  2 20  1  0  0  0
  3 23  1  0  0  0
  3 31  1  0  0  0
  4 32  1  0  0  0
  6 22  1  0  0  0
  7  8  1  0  0  0
  8 24  1  0  0  0
  9 26  1  0  0  0
 10 11  1  0  0  0
 10 12  1  0  0  0
 11 13  1  0  0  0
 12 25  1  0  0  0
 13 25  1  0  0  0
 14  5  1  0  0  0
 14  9  1  0  0  0
 14 22  1  0  0  0
 15  6  1  0  0  0
 15 16  1  0  0  0
 15 24  1  0  0  0
 16 22  1  0  0  0
 16 32  1  0  0  0
 17 25  1  0  0  0
 18 30  1  0  0  0
 19  5  1  0  0  0
 19 25  1  0  0  0
 21 30  1  0  0  0
  1  2  2  0  0  0
  3 20  2  0  0  0
  4  5  2  0  0  0
  6 27  2  0  0  0
  7 21  2  0  0  0
  8 28  2  0  0  0
  9 29  2  0  0  0
M  CHG  2  25   1  26  -1
M  END
> <rmsd>
0.484612852

$$$$
ZINC08035460


 32 35  0  0  0  0  0  0  0  0999 V2000
   -4.6632   -1.0746    0.5465 C   0  0  0  0  0
   -3.5387   -0.4740    0.0204 C   0  0  0  0  0
   -3.2570   -2.4848   -0.8086 C   0  0  0  0  0
    3.4454    0.1561   -0.4169 C   0  0  0  0  0
    4.3675    0.3202    0.5610 C   0  0  0  0  0
    1.1393    0.9525   -1.0991 C   0  0  0  0  0
   -3.1759    0.9499    0.2530 C   0  0  0  0  0
    3.8140   -0.5769   -1.7011 C   0  0  0  0  0
   -1.9199    1.4931   -0.3762 C   0  0  0  0  0
    4.1254    1.1631    1.8131 C   0  0  0  0  0
    7.5374   -2.3539    2.6918 C   0  0  0  0  0
    6.2151   -2.5567    3.4038 C   0  0  0  0  0
    7.1462   -2.3091    1.2250 C   0  0  0  0  0
    5.2852   -1.6063    2.6726 C   0  0  0  0  0
    0.5027    1.7852    0.0528 C   0  0  0  0  0
    1.6406    1.2096    0.9245 C   0  0  0  0  0
    4.8313   -2.5447    0.4560 C   0  0  0  0  0
   -4.2723    3.7789    1.9043 C   0  0  0  0  0
    5.7403   -0.3068    0.5505 C   0  0  0  0  0
   -2.7309   -1.2811   -0.7565 N   0  0  0  0  0
   -3.9225    1.7154    0.9904 N   0  0  0  0  0
    2.2084    0.7074   -0.3124 N   0  0  0  0  0
   -2.7157   -3.5285   -1.4911 N   0  0  0  0  0
   -0.8336    1.3403    0.4406 N   0  0  0  0  0
    5.7642   -1.6546    1.2238 N   0  0  0  0  0
    4.7528   -0.0519   -2.3551 O   0  0  0  0  0
    0.8611    0.6833   -2.2439 O   0  0  0  0  0
    3.1296   -1.6077   -1.9330 O   0  0  0  0  0
   -1.9994    1.9837   -1.4909 O   0  0  0  0  0
   -3.4013    3.0132    1.0862 O   0  0  0  0  0
   -4.7229   -2.7161    0.0532 S   0  0  0  0  0
    2.7922    2.3990    1.6437 S   0  0  0  0  0
  1 31  1  0  0  0
  2  7  1  0  0  0
  2 20  1  0  0  0
  3 23  1  0  0  0
  3 31  1  0  0  0
  4  8  1  0  0  0
  4 22  1  0  0  0
  6 22  1  0  0  0
  7  9  1  0  0  0
  8 26  1  0  0  0
  9 24  1  0  0  0
 10  5  1  0  0  0
 10 32  1  0  0  0
 11 12  1  0  0  0
 11 13  1  0  0  0
 12 14  1  0  0  0
 13 25  1  0  0  0
 14 25  1  0  0  0
 15  6  1  0  0  0
 15 16  1  0  0  0
 15 24  1  0  0  0
 16 22  1  0  0  0
 16 32  1  0  0  0
 17 25  1  0  0  0
 18 30  1  0  0  0
 19  5  1  0  0  0
 19 25  1  0  0  0
 21 30  1  0  0  0
  1  2  2  0  0  0
  3 20  2  0  0  0
  4  5  2  0  0  0
  6 27  2  0  0  0
  7 21  2  0  0  0
  8 28  2  0  0  0
  9 29  2  0  0  0
M  CHG  2  25   1  26  -1
M  END
> <rmsd>
0.166203856

$$$$
ZINC33253580


 29 30  0  0  0  0  0  0  0  0999 V2000
   -0.1066    2.5010   -1.5743 C   0  0  0  0  0
    0.8691    2.5239   -2.5709 C   0  0  0  0  0
   -3.3756   -1.1953    0.7379 C   0  0  0  0  0
   -2.7421   -0.9369   -1.5792 C   0  0  0  0  0
   -3.5403   -2.5660    0.5400 C   0  0  0  0  0
   -2.9067   -2.3078   -1.7771 C   0  0  0  0  0
    0.8584    0.4764   -0.6761 C   0  0  0  0  0
    1.8340    0.4992   -1.6727 C   0  0  0  0  0
   -0.1119    1.4771   -0.6269 C   0  0  0  0  0
    1.8394    1.5230   -2.6201 C   0  0  0  0  0
   -2.9766   -0.3806   -0.3218 C   0  0  0  0  0
   -3.3058   -3.1224   -0.7174 C   0  0  0  0  0
    2.8491   -0.5705   -1.7019 C   0  0  0  0  0
    5.7374    1.3671   -3.0148 C   0  0  0  0  0
    5.7651    3.8704   -2.7754 C   0  0  0  0  0
    1.3560    1.5440   -6.2353 C   0  0  0  0  0
    1.8452   -0.9197   -6.3610 C   0  0  0  0  0
    3.7074    2.7252   -3.7271 C   0  0  0  0  0
    2.9702    0.4919   -4.5741 C   0  0  0  0  0
    4.8914    2.6153   -2.7588 C   0  0  0  0  0
    1.7177    0.2913   -5.4357 C   0  0  0  0  0
   -1.1113    1.4537    0.3926 N   0  0  0  0  0
    2.7977    1.5627   -3.6167 N   0  0  0  0  0
    2.6048   -1.6339   -2.3833 O   0  0  0  0  0
    3.9419   -0.4018   -1.0447 O   0  0  0  0  0
   -3.5970    1.7226    1.0630 O   0  0  0  0  0
   -2.9648    2.0173   -1.3480 O   0  0  0  0  0
   -2.7678    1.3590   -0.0708 S   0  0  0  0  0
   -3.5295   -4.9797   -0.9856 Br  0  0  0  0  0
  1  9  1  0  0  0
  2 10  1  0  0  0
  3 11  1  0  0  0
  4  6  1  0  0  0
  5 12  1  0  0  0
  7  8  1  0  0  0
  8 13  1  0  0  0
  9 22  1  0  0  0
 10 23  1  0  0  0
 12 29  1  0  0  0
 13 24  1  0  0  0
 14 20  1  0  0  0
 15 20  1  0  0  0
 16 21  1  0  0  0
 17 21  1  0  0  0
 18 20  1  0  0  0
 18 23  1  0  0  0
 19 21  1  0  0  0
 19 23  1  0  0  0
 28 11  1  0  0  0
 28 22  1  0  0  0
  1  2  2  0  0  0
  3  5  2  0  0  0
  4 11  2  0  0  0
  6 12  2  0  0  0
  7  9  2  0  0  0
  8 10  2  0  0  0
 13 25  2  0  0  0
 28 26  2  0  0  0
 28 27  2  0  0  0
M  CHG  1  24  -1
M  END
> <rmsd>
0.526191235

$$$$
ZINC33253580


 29 30  0  0  0  0  0  0  0  0999 V2000
   -0.0380    2.7668   -1.2902 C   0  0  0  0  0
    1.0213    2.8834   -2.1901 C   0  0  0  0  0
   -3.2075   -1.2130    0.6619 C   0  0  0  0  0
   -2.3836   -0.8633   -1.5822 C   0  0  0  0  0
   -3.2450   -2.5884    0.4339 C   0  0  0  0  0
   -2.4210   -2.2390   -1.8102 C   0  0  0  0  0
    0.9953    0.8062   -0.3281 C   0  0  0  0  0
    2.0545    0.9228   -1.2282 C   0  0  0  0  0
   -0.0509    1.7281   -0.3591 C   0  0  0  0  0
    2.0675    1.9614   -2.1591 C   0  0  0  0  0
   -2.7769   -0.3504   -0.3461 C   0  0  0  0  0
   -2.8516   -3.1016   -0.8021 C   0  0  0  0  0
    3.1487   -0.0648   -1.1738 C   0  0  0  0  0
    5.9855    2.1139   -2.1869 C   0  0  0  0  0
    5.7942    4.6069   -1.9176 C   0  0  0  0  0
    1.9221    2.0125   -5.8033 C   0  0  0  0  0
    2.6128   -0.4034   -5.9104 C   0  0  0  0  0
    3.9302    3.3245   -3.0717 C   0  0  0  0  0
    3.4525    1.0572   -4.0096 C   0  0  0  0  0
    5.0240    3.2881   -1.9976 C   0  0  0  0  0
    2.3052    0.7767   -4.9876 C   0  0  0  0  0
   -1.1358    1.6087    0.5614 N   0  0  0  0  0
    3.1082    2.0935   -3.0607 N   0  0  0  0  0
    3.0531   -1.1310   -1.8872 O   0  0  0  0  0
    4.1591    0.1754   -0.4148 O   0  0  0  0  0
   -3.6866    1.6726    0.9979 O   0  0  0  0  0
   -2.8580    2.0600   -1.3394 O   0  0  0  0  0
   -2.7295    1.3951   -0.0569 S   0  0  0  0  0
   -2.9029   -4.9653   -1.1112 Br  0  0  0  0  0
  1  9  1  0  0  0
  2 10  1  0  0  0
  3 11  1  0  0  0
  4  6  1  0  0  0
  5 12  1  0  0  0
  7  8  1  0  0  0
  8 13  1  0  0  0
  9 22  1  0  0  0
 10 23  1  0  0  0
 12 29  1  0  0  0
 13 24  1  0  0  0
 14 20  1  0  0  0
 15 20  1  0  0  0
 16 21  1  0  0  0
 17 21  1  0  0  0
 18 20  1  0  0  0
 18 23  1  0  0  0
 19 21  1  0  0  0
 19 23  1  0  0  0
 28 11  1  0  0  0
 28 22  1  0  0  0
  1  2  2  0  0  0
  3  5  2  0  0  0
  4 11  2  0  0  0
  6 12  2  0  0  0
  7  9  2  0  0  0
  8 10  2  0  0  0
 13 25  2  0  0  0
 28 26  2  0  0  0
 28 27  2  0  0  0
M  CHG  1  24  -1
M  END
> <rmsd>
0.707109213

$$$$
ZINC35397511


 29 30  0  0  0  0  0  0  0  0999 V2000
   -3.3971   -1.1890    0.7484 C   0  0  0  0  0
   -2.7433   -0.9507   -1.5652 C   0  0  0  0  0
   -3.5704   -2.5600    0.5583 C   0  0  0  0  0
   -2.9165   -2.3216   -1.7553 C   0  0  0  0  0
    0.8685    0.4570   -0.6593 C   0  0  0  0  0
   -0.0599    2.4526   -1.5606 C   0  0  0  0  0
    1.8382    0.4945   -1.6551 C   0  0  0  0  0
   -0.1022    1.4509   -0.6041 C   0  0  0  0  0
   -2.9836   -0.3843   -0.3133 C   0  0  0  0  0
   -3.3300   -3.1262   -0.6935 C   0  0  0  0  0
    1.7936    1.5388   -2.5645 C   0  0  0  0  0
    2.8654   -0.5596   -1.7114 C   0  0  0  0  0
    5.6928    1.3867   -2.9472 C   0  0  0  0  0
    5.7183    3.8892   -2.6991 C   0  0  0  0  0
    1.3218    1.5720   -6.1812 C   0  0  0  0  0
    1.8129   -0.8908   -6.3138 C   0  0  0  0  0
    3.6644    2.7460   -3.6613 C   0  0  0  0  0
    2.9313    0.5152   -4.5185 C   0  0  0  0  0
    4.8453    2.6335   -2.6895 C   0  0  0  0  0
    1.6817    0.3169   -5.3850 C   0  0  0  0  0
    0.8663    2.5224   -2.5429 N   0  0  0  0  0
   -1.1091    1.4396    0.4042 N   0  0  0  0  0
    2.7551    1.5826   -3.5580 N   0  0  0  0  0
    2.6296   -1.6167   -2.4073 O   0  0  0  0  0
    3.9640   -0.3883   -1.0626 O   0  0  0  0  0
   -3.6007    1.7328    1.0516 O   0  0  0  0  0
   -2.9442    2.0064   -1.3554 O   0  0  0  0  0
   -2.7639    1.3553   -0.0721 S   0  0  0  0  0
   -3.5653   -4.9836   -0.9513 Br  0  0  0  0  0
  1  9  1  0  0  0
  2  4  1  0  0  0
  3 10  1  0  0  0
  5  8  1  0  0  0
  6 21  1  0  0  0
  7 11  1  0  0  0
  7 12  1  0  0  0
  8 22  1  0  0  0
 10 29  1  0  0  0
 11 23  1  0  0  0
 12 24  1  0  0  0
 13 19  1  0  0  0
 14 19  1  0  0  0
 15 20  1  0  0  0
 16 20  1  0  0  0
 17 19  1  0  0  0
 17 23  1  0  0  0
 18 20  1  0  0  0
 18 23  1  0  0  0
 28  9  1  0  0  0
 28 22  1  0  0  0
  1  3  2  0  0  0
  2  9  2  0  0  0
  4 10  2  0  0  0
  5  7  2  0  0  0
  6  8  2  0  0  0
 11 21  2  0  0  0
 12 25  2  0  0  0
 28 26  2  0  0  0
 28 27  2  0  0  0
M  CHG  1  24  -1
M  END
> <rmsd>
0.510413706

$$$$
ZINC35397511


 29 30  0  0  0  0  0  0  0  0999 V2000
   -3.2322   -1.2079    0.6724 C   0  0  0  0  0
   -2.3864   -0.8788   -1.5666 C   0  0  0  0  0
   -3.2798   -2.5845    0.4522 C   0  0  0  0  0
   -2.4339   -2.2553   -1.7869 C   0  0  0  0  0
    1.0047    0.7847   -0.3096 C   0  0  0  0  0
    0.0117    2.7192   -1.2729 C   0  0  0  0  0
    2.0570    0.9141   -1.2091 C   0  0  0  0  0
   -0.0413    1.7002   -0.3355 C   0  0  0  0  0
   -2.7856   -0.3550   -0.3370 C   0  0  0  0  0
   -2.8805   -3.1081   -0.7774 C   0  0  0  0  0
    2.0161    1.9681   -2.1075 C   0  0  0  0  0
    3.1639   -0.0572   -1.1796 C   0  0  0  0  0
    5.9340    2.1217   -2.1228 C   0  0  0  0  0
    5.7413    4.6139   -1.8466 C   0  0  0  0  0
    1.8819    2.0299   -5.7520 C   0  0  0  0  0
    2.5735   -0.3853   -5.8641 C   0  0  0  0  0
    3.8812    3.3343   -3.0102 C   0  0  0  0  0
    3.4071    1.0697   -3.9565 C   0  0  0  0  0
    4.9717    3.2951   -1.9328 C   0  0  0  0  0
    2.2627    0.7919   -4.9388 C   0  0  0  0  0
    1.0170    2.8773   -2.1628 N   0  0  0  0  0
   -1.1338    1.5938    0.5734 N   0  0  0  0  0
    3.0595    2.1031   -3.0055 N   0  0  0  0  0
    3.0770   -1.1165   -1.9059 O   0  0  0  0  0
    4.1807    0.1861   -0.4284 O   0  0  0  0  0
   -3.6901    1.6838    0.9863 O   0  0  0  0  0
   -2.8357    2.0500   -1.3452 O   0  0  0  0  0
   -2.7254    1.3917   -0.0576 S   0  0  0  0  0
   -2.9455   -4.9732   -1.0760 Br  0  0  0  0  0
  1  9  1  0  0  0
  2  4  1  0  0  0
  3 10  1  0  0  0
  5  8  1  0  0  0
  6 21  1  0  0  0
  7 11  1  0  0  0
  7 12  1  0  0  0
  8 22  1  0  0  0
 10 29  1  0  0  0
 11 23  1  0  0  0
 12 24  1  0  0  0
 13 19  1  0  0  0
 14 19  1  0  0  0
 15 20  1  0  0  0
 16 20  1  0  0  0
 17 19  1  0  0  0
 17 23  1  0  0  0
 18 20  1  0  0  0
 18 23  1  0  0  0
 28  9  1  0  0  0
 28 22  1  0  0  0
  1  3  2  0  0  0
  2  9  2  0  0  0
  4 10  2  0  0  0
  5  7  2  0  0  0
  6  8  2  0  0  0
 11 21  2  0  0  0
 12 25  2  0  0  0
 28 26  2  0  0  0
 28 27  2  0  0  0
M  CHG  1  24  -1
M  END
> <rmsd>
0.689253807

$$$$
ZINC32961579


 33 36  0  0  0  0  0  0  0  0999 V2000
   -3.2940   -2.4903   -1.3101 C   0  0  0  0  0
    7.7121    3.0438   -7.6158 C   0  0  0  0  0
    7.0047    0.8983   -8.4726 C   0  0  0  0  0
    6.7281    2.9744   -6.6296 C   0  0  0  0  0
    6.0207    0.8290   -7.4864 C   0  0  0  0  0
    0.9239    2.5884   -2.4903 C   0  0  0  0  0
   -0.0687    2.5354   -1.5117 C   0  0  0  0  0
   -3.1629   -1.0961   -1.5729 C   0  0  0  0  0
    0.8652    0.4698   -0.6763 C   0  0  0  0  0
   -3.2086   -2.7735    0.0353 C   0  0  0  0  0
    7.8504    2.0057   -8.5373 C   0  0  0  0  0
    1.8577    0.5227   -1.6549 C   0  0  0  0  0
    5.8824    1.8671   -6.5649 C   0  0  0  0  0
    1.8871    1.5820   -2.5618 C   0  0  0  0  0
   -0.0980    1.4761   -0.6047 C   0  0  0  0  0
   -2.9825   -0.3667   -0.4182 C   0  0  0  0  0
    8.8762    2.0781   -9.5654 C   0  0  0  0  0
    2.8643   -0.5543   -1.7086 C   0  0  0  0  0
    5.0900    2.4382   -4.2794 C   0  0  0  0  0
    3.6461    1.0820   -5.8168 C   0  0  0  0  0
    4.2872    1.7178   -3.1927 C   0  0  0  0  0
    2.5146    1.6644   -4.9653 C   0  0  0  0  0
    9.2735    3.4408  -10.0541 C   0  0  0  0  0
    4.8998    1.7978   -5.5809 N   0  0  0  0  0
    2.8694    1.6531   -3.5461 N   0  0  0  0  0
   -1.1143    1.4223    0.3966 N   0  0  0  0  0
    2.6225   -1.5885   -2.4342 O   0  0  0  0  0
    9.4412    1.1051  -10.0696 O   0  0  0  0  0
    3.9474   -0.4204   -1.0277 O   0  0  0  0  0
   -3.6086    1.6872    1.0363 O   0  0  0  0  0
   -2.9340    2.0686   -1.3509 O   0  0  0  0  0
   -2.9714   -1.3619    0.9752 S   0  0  0  0  0
   -2.7636    1.3601   -0.0970 S   0  0  0  0  0
  1  8  1  0  0  0
  2 11  1  0  0  0
  3  5  1  0  0  0
  4 13  1  0  0  0
  6 14  1  0  0  0
  7 15  1  0  0  0
  9 12  1  0  0  0
 10 32  1  0  0  0
 11 17  1  0  0  0
 12 18  1  0  0  0
 13 24  1  0  0  0
 14 25  1  0  0  0
 15 26  1  0  0  0
 16 32  1  0  0  0
 18 27  1  0  0  0
 19 21  1  0  0  0
 19 24  1  0  0  0
 20 22  1  0  0  0
 20 24  1  0  0  0
 21 25  1  0  0  0
 22 25  1  0  0  0
 23 17  1  0  0  0
 33 16  1  0  0  0
 33 26  1  0  0  0
  1 10  2  0  0  0
  2  4  2  0  0  0
  3 11  2  0  0  0
  5 13  2  0  0  0
  6  7  2  0  0  0
  8 16  2  0  0  0
  9 15  2  0  0  0
 12 14  2  0  0  0
 17 28  2  0  0  0
 18 29  2  0  0  0
 33 30  2  0  0  0
 33 31  2  0  0  0
M  CHG  1  27  -1
M  END
> <rmsd>
0.504303634

$$$$
ZINC32961579


 33 36  0  0  0  0  0  0  0  0999 V2000
   -2.8371   -2.4653   -1.3749 C   0  0  0  0  0
    8.2766    3.9758   -6.5248 C   0  0  0  0  0
    7.8209    1.7972   -7.4647 C   0  0  0  0  0
    7.2096    3.8174   -5.6405 C   0  0  0  0  0
    6.7539    1.6388   -6.5804 C   0  0  0  0  0
    1.0772    2.9328   -2.0933 C   0  0  0  0  0
    0.0011    2.7903   -1.2172 C   0  0  0  0  0
   -2.7874   -1.0613   -1.6119 C   0  0  0  0  0
    1.0038    0.7873   -0.3116 C   0  0  0  0  0
   -2.8614   -2.7626   -0.0301 C   0  0  0  0  0
    8.5823    2.9657   -7.4370 C   0  0  0  0  0
    2.0798    0.9299   -1.1878 C   0  0  0  0  0
    6.4482    2.6490   -5.6682 C   0  0  0  0  0
    2.1165    2.0026   -2.0785 C   0  0  0  0  0
   -0.0355    1.7175   -0.3264 C   0  0  0  0  0
   -2.7759   -0.3387   -0.4390 C   0  0  0  0  0
    9.6945    3.1308   -8.3589 C   0  0  0  0  0
    3.1657   -0.0678   -1.1516 C   0  0  0  0  0
    5.3966    3.1230   -3.4667 C   0  0  0  0  0
    4.2161    1.6870   -5.1496 C   0  0  0  0  0
    4.5492    2.3276   -2.4699 C   0  0  0  0  0
    2.9663    2.1696   -4.4081 C   0  0  0  0  0
   10.0326    4.5270   -8.7950 C   0  0  0  0  0
    5.3828    2.4909   -4.7858 N   0  0  0  0  0
    3.1814    2.1625   -2.9612 N   0  0  0  0  0
   -1.1371    1.5720    0.5701 N   0  0  0  0  0
    3.0749   -1.1056   -1.9061 O   0  0  0  0  0
   10.3782    2.2109   -8.8135 O   0  0  0  0  0
    4.1643    0.1360   -0.3667 O   0  0  0  0  0
   -3.6947    1.6393    0.9644 O   0  0  0  0  0
   -2.8224    2.1078   -1.3419 O   0  0  0  0  0
   -2.8246   -1.3522    0.9404 S   0  0  0  0  0
   -2.7212    1.3943   -0.0834 S   0  0  0  0  0
  1  8  1  0  0  0
  2 11  1  0  0  0
  3  5  1  0  0  0
  4 13  1  0  0  0
  6 14  1  0  0  0
  7 15  1  0  0  0
  9 12  1  0  0  0
 10 32  1  0  0  0
 11 17  1  0  0  0
 12 18  1  0  0  0
 13 24  1  0  0  0
 14 25  1  0  0  0
 15 26  1  0  0  0
 16 32  1  0  0  0
 18 27  1  0  0  0
 19 21  1  0  0  0
 19 24  1  0  0  0
 20 22  1  0  0  0
 20 24  1  0  0  0
 21 25  1  0  0  0
 22 25  1  0  0  0
 23 17  1  0  0  0
 33 16  1  0  0  0
 33 26  1  0  0  0
  1 10  2  0  0  0
  2  4  2  0  0  0
  3 11  2  0  0  0
  5 13  2  0  0  0
  6  7  2  0  0  0
  8 16  2  0  0  0
  9 15  2  0  0  0
 12 14  2  0  0  0
 17 28  2  0  0  0
 18 29  2  0  0  0
 33 30  2  0  0  0
 33 31  2  0  0  0
M  CHG  1  27  -1
M  END
> <rmsd>
0.67917794

$$$$
ZINC65739906


 31 33  0  0  0  0  0  0  0  0999 V2000
   -4.4867   -1.1676    0.4477 C   0  0  0  0  0
   -3.4000   -0.4797   -0.0503 C   0  0  0  0  0
   -2.9973   -2.4346   -0.9592 C   0  0  0  0  0
    3.0786   -0.1616   -0.2847 C   0  0  0  0  0
    3.6274   -0.6224    0.8645 C   0  0  0  0  0
    1.1608    1.2791   -1.1139 C   0  0  0  0  0
   -3.1238    0.9529    0.2406 C   0  0  0  0  0
    3.5192   -0.7403   -1.6243 C   0  0  0  0  0
   -1.9024    1.5957   -0.3624 C   0  0  0  0  0
    7.6487   -2.6380   -0.3537 C   0  0  0  0  0
    3.1243   -0.2297    2.2518 C   0  0  0  0  0
    0.4980    2.0153    0.0853 C   0  0  0  0  0
    1.7368    1.5614    0.8878 C   0  0  0  0  0
   -4.3893    3.6416    2.0016 C   0  0  0  0  0
    4.7820   -1.5920    0.9270 C   0  0  0  0  0
    7.4791   -2.0717    1.0337 C   0  0  0  0  0
   -2.5447   -1.2047   -0.8568 N   0  0  0  0  0
   -3.9154    1.6417    1.0063 N   0  0  0  0  0
    2.0862    0.7653   -0.2748 N   0  0  0  0  0
   -2.3939   -3.4154   -1.6815 N   0  0  0  0  0
    7.2762   -3.9589   -0.4599 N   0  0  0  0  0
   -0.8105    1.4749    0.4512 N   0  0  0  0  0
    2.8509   -1.7337   -2.0128 O   0  0  0  0  0
    0.9261    1.1341   -2.2907 O   0  0  0  0  0
    4.4911   -0.1458   -2.1592 O   0  0  0  0  0
   -2.0108    2.1254   -1.4566 O   0  0  0  0  0
    8.0707   -1.9707   -1.2958 O   0  0  0  0  0
   -3.4734    2.9634    1.1559 O   0  0  0  0  0
   -4.4471   -2.7884   -0.1117 S   0  0  0  0  0
    1.4300    0.4484    2.2783 S   0  0  0  0  0
    6.3311   -0.6748    0.9621 S   0  0  0  0  0
  1 29  1  0  0  0
  2  7  1  0  0  0
  2 17  1  0  0  0
  3 20  1  0  0  0
  3 29  1  0  0  0
  4  8  1  0  0  0
  4 19  1  0  0  0
  6 19  1  0  0  0
  7  9  1  0  0  0
  8 23  1  0  0  0
  9 22  1  0  0  0
 10 21  1  0  0  0
 11  5  1  0  0  0
 11 30  1  0  0  0
 12  6  1  0  0  0
 12 13  1  0  0  0
 12 22  1  0  0  0
 13 19  1  0  0  0
 13 30  1  0  0  0
 14 28  1  0  0  0
 15  5  1  0  0  0
 15 31  1  0  0  0
 16 10  1  0  0  0
 16 31  1  0  0  0
 18 28  1  0  0  0
  1  2  2  0  0  0
  3 17  2  0  0  0
  4  5  2  0  0  0
  6 24  2  0  0  0
  7 18  2  0  0  0
  8 25  2  0  0  0
  9 26  2  0  0  0
 10 27  2  0  0  0
M  CHG  1  23  -1
M  END
> <rmsd>
0.102892026

$$$$
ZINC65739906


 31 33  0  0  0  0  0  0  0  0999 V2000
   -4.2080   -1.2863    0.2907 C   0  0  0  0  0
   -3.1730   -0.4827   -0.1392 C   0  0  0  0  0
   -2.5624   -2.3531   -1.1080 C   0  0  0  0  0
    3.2534    0.4284   -0.1198 C   0  0  0  0  0
    3.8033   -0.0291    1.0302 C   0  0  0  0  0
    1.2405    1.7239   -0.9629 C   0  0  0  0  0
   -3.0391    0.9554    0.2174 C   0  0  0  0  0
    3.7899   -0.0510   -1.4636 C   0  0  0  0  0
   -1.8623    1.7307   -0.3142 C   0  0  0  0  0
    8.0311   -1.6202   -0.1151 C   0  0  0  0  0
    3.2201    0.2577    2.4120 C   0  0  0  0  0
    0.4731    2.3459    0.2386 C   0  0  0  0  0
    1.7207    1.9723    1.0683 C   0  0  0  0  0
   -4.6042    3.4421    2.0336 C   0  0  0  0  0
    5.0392   -0.8923    1.0977 C   0  0  0  0  0
    7.7639   -1.1307    1.2860 C   0  0  0  0  0
   -2.2282   -1.0928   -0.9411 N   0  0  0  0  0
   -3.9158    1.5369    0.9794 N   0  0  0  0  0
    2.1804    1.2607   -0.1106 N   0  0  0  0  0
   -1.8478   -3.2441   -1.8451 N   0  0  0  0  0
    7.7850   -2.9637   -0.2866 N   0  0  0  0  0
   -0.7919    1.6747    0.5341 N   0  0  0  0  0
    3.2289   -1.0834   -1.9151 O   0  0  0  0  0
    1.0596    1.6081   -2.1524 O   0  0  0  0  0
    4.7206    0.6509   -1.9384 O   0  0  0  0  0
   -1.9821    2.2942   -1.3901 O   0  0  0  0  0
    8.4214   -0.8784   -1.0142 O   0  0  0  0  0
   -3.6021    2.8857    1.1967 O   0  0  0  0  0
   -4.0012   -2.8718   -0.3296 S   0  0  0  0  0
    1.4709    0.7784    2.4020 S   0  0  0  0  0
    6.4956    0.1587    1.2263 S   0  0  0  0  0
  1 29  1  0  0  0
  2  7  1  0  0  0
  2 17  1  0  0  0
  3 20  1  0  0  0
  3 29  1  0  0  0
  4  8  1  0  0  0
  4 19  1  0  0  0
  6 19  1  0  0  0
  7  9  1  0  0  0
  8 23  1  0  0  0
  9 22  1  0  0  0
 10 21  1  0  0  0
 11  5  1  0  0  0
 11 30  1  0  0  0
 12  6  1  0  0  0
 12 13  1  0  0  0
 12 22  1  0  0  0
 13 19  1  0  0  0
 13 30  1  0  0  0
 14 28  1  0  0  0
 15  5  1  0  0  0
 15 31  1  0  0  0
 16 10  1  0  0  0
 16 31  1  0  0  0
 18 28  1  0  0  0
  1  2  2  0  0  0
  3 17  2  0  0  0
  4  5  2  0  0  0
  6 24  2  0  0  0
  7 18  2  0  0  0
  8 25  2  0  0  0
  9 26  2  0  0  0
 10 27  2  0  0  0
M  CHG  1  23  -1
M  END
> <rmsd>
0.402821034

$$$$
ZINC65739906


 31 33  0  0  0  0  0  0  0  0999 V2000
   -4.4871   -1.1675    0.4477 C   0  0  0  0  0
   -3.4005   -0.4796   -0.0503 C   0  0  0  0  0
   -2.9978   -2.4346   -0.9591 C   0  0  0  0  0
    3.0781   -0.1615   -0.2849 C   0  0  0  0  0
    3.6269   -0.6222    0.8644 C   0  0  0  0  0
    1.1603    1.2791   -1.1140 C   0  0  0  0  0
   -3.1243    0.9530    0.2406 C   0  0  0  0  0
    3.5187   -0.7402   -1.6244 C   0  0  0  0  0
   -1.9029    1.5957   -0.3625 C   0  0  0  0  0
    6.2186   -4.1601    2.4405 C   0  0  0  0  0
    3.1238   -0.2295    2.2516 C   0  0  0  0  0
    0.4975    2.0154    0.0852 C   0  0  0  0  0
    1.7363    1.5616    0.8877 C   0  0  0  0  0
   -4.3898    3.6417    2.0015 C   0  0  0  0  0
    4.7815   -1.5919    0.9269 C   0  0  0  0  0
    5.7207   -4.1660    1.0170 C   0  0  0  0  0
   -2.5452   -1.2046   -0.8568 N   0  0  0  0  0
   -3.9159    1.6417    1.0063 N   0  0  0  0  0
    2.0857    0.7654   -0.2749 N   0  0  0  0  0
   -2.3944   -3.4154   -1.6814 N   0  0  0  0  0
    7.4470   -3.5580    2.5930 N   0  0  0  0  0
   -0.8110    1.4750    0.4511 N   0  0  0  0  0
    2.8504   -1.7336   -2.0128 O   0  0  0  0  0
    0.9255    1.1341   -2.2908 O   0  0  0  0  0
    4.4906   -0.1457   -2.1594 O   0  0  0  0  0
   -2.0113    2.1254   -1.4567 O   0  0  0  0  0
    5.5748   -4.6412    3.3707 O   0  0  0  0  0
   -3.4739    2.9635    1.1557 O   0  0  0  0  0
   -4.4475   -2.7883   -0.1116 S   0  0  0  0  0
    1.4296    0.4486    2.2782 S   0  0  0  0  0
    4.1464   -3.2768    0.9413 S   0  0  0  0  0
  1 29  1  0  0  0
  2  7  1  0  0  0
  2 17  1  0  0  0
  3 20  1  0  0  0
  3 29  1  0  0  0
  4  8  1  0  0  0
  4 19  1  0  0  0
  6 19  1  0  0  0
  7  9  1  0  0  0
  8 23  1  0  0  0
  9 22  1  0  0  0
 10 21  1  0  0  0
 11  5  1  0  0  0
 11 30  1  0  0  0
 12  6  1  0  0  0
 12 13  1  0  0  0
 12 22  1  0  0  0
 13 19  1  0  0  0
 13 30  1  0  0  0
 14 28  1  0  0  0
 15  5  1  0  0  0
 15 31  1  0  0  0
 16 10  1  0  0  0
 16 31  1  0  0  0
 18 28  1  0  0  0
  1  2  2  0  0  0
  3 17  2  0  0  0
  4  5  2  0  0  0
  6 24  2  0  0  0
  7 18  2  0  0  0
  8 25  2  0  0  0
  9 26  2  0  0  0
 10 27  2  0  0  0
M  CHG  1  23  -1
M  END
> <rmsd>
0.102866821

$$$$
ZINC65739906


 31 33  0  0  0  0  0  0  0  0999 V2000
   -4.2085   -1.2863    0.2907 C   0  0  0  0  0
   -3.1734   -0.4827   -0.1392 C   0  0  0  0  0
   -2.5629   -2.3532   -1.1080 C   0  0  0  0  0
    3.2529    0.4285   -0.1200 C   0  0  0  0  0
    3.8028   -0.0289    1.0300 C   0  0  0  0  0
    1.2399    1.7239   -0.9631 C   0  0  0  0  0
   -3.0396    0.9554    0.2173 C   0  0  0  0  0
    3.7894   -0.0510   -1.4638 C   0  0  0  0  0
   -1.8629    1.7307   -0.3143 C   0  0  0  0  0
    6.6537   -3.3818    2.5624 C   0  0  0  0  0
    3.2197    0.2579    2.4119 C   0  0  0  0  0
    0.4726    2.3460    0.2384 C   0  0  0  0  0
    1.7202    1.9724    1.0682 C   0  0  0  0  0
   -4.6047    3.4422    2.0335 C   0  0  0  0  0
    5.0388   -0.8921    1.0976 C   0  0  0  0  0
    6.2065   -3.3725    1.1221 C   0  0  0  0  0
   -2.2287   -1.0928   -0.9411 N   0  0  0  0  0
   -3.9163    1.5370    0.9793 N   0  0  0  0  0
    2.1799    1.2608   -0.1108 N   0  0  0  0  0
   -1.8483   -3.2442   -1.8450 N   0  0  0  0  0
    7.8160   -2.6782    2.7838 N   0  0  0  0  0
   -0.7924    1.6748    0.5340 N   0  0  0  0  0
    3.2284   -1.0834   -1.9152 O   0  0  0  0  0
    1.0590    1.6081   -2.1526 O   0  0  0  0  0
    4.7201    0.6509   -1.9386 O   0  0  0  0  0
   -1.9826    2.2941   -1.3903 O   0  0  0  0  0
    6.0260   -3.9579    3.4485 O   0  0  0  0  0
   -3.6026    2.8857    1.1966 O   0  0  0  0  0
   -4.0017   -2.8718   -0.3295 S   0  0  0  0  0
    1.4704    0.7786    2.4018 S   0  0  0  0  0
    4.5607   -2.6266    1.0227 S   0  0  0  0  0
  1 29  1  0  0  0
  2  7  1  0  0  0
  2 17  1  0  0  0
  3 20  1  0  0  0
  3 29  1  0  0  0
  4  8  1  0  0  0
  4 19  1  0  0  0
  6 19  1  0  0  0
  7  9  1  0  0  0
  8 23  1  0  0  0
  9 22  1  0  0  0
 10 21  1  0  0  0
 11  5  1  0  0  0
 11 30  1  0  0  0
 12  6  1  0  0  0
 12 13  1  0  0  0
 12 22  1  0  0  0
 13 19  1  0  0  0
 13 30  1  0  0  0
 14 28  1  0  0  0
 15  5  1  0  0  0
 15 31  1  0  0  0
 16 10  1  0  0  0
 16 31  1  0  0  0
 18 28  1  0  0  0
  1  2  2  0  0  0
  3 17  2  0  0  0
  4  5  2  0  0  0
  6 24  2  0  0  0
  7 18  2  0  0  0
  8 25  2  0  0  0
  9 26  2  0  0  0
 10 27  2  0  0  0
M  CHG  1  23  -1
M  END
> <rmsd>
0.402643561

$$$$
ZINC65739906


 31 33  0  0  0  0  0  0  0  0999 V2000
   -4.4870   -1.1676    0.4474 C   0  0  0  0  0
   -3.4004   -0.4797   -0.0505 C   0  0  0  0  0
   -2.9977   -2.4347   -0.9593 C   0  0  0  0  0
    3.0782   -0.1616   -0.2851 C   0  0  0  0  0
    3.6270   -0.6223    0.8641 C   0  0  0  0  0
    1.1604    1.2790   -1.1143 C   0  0  0  0  0
   -3.1242    0.9529    0.2403 C   0  0  0  0  0
    3.5188   -0.7403   -1.6247 C   0  0  0  0  0
   -1.9028    1.5956   -0.3628 C   0  0  0  0  0
    5.4454   -5.6486    1.0395 C   0  0  0  0  0
    3.1239   -0.2296    2.2514 C   0  0  0  0  0
    0.4976    2.0153    0.0849 C   0  0  0  0  0
    1.7364    1.5615    0.8874 C   0  0  0  0  0
   -4.3897    3.6416    2.0012 C   0  0  0  0  0
    4.7816   -1.5919    0.9266 C   0  0  0  0  0
    5.7208   -4.1660    1.0167 C   0  0  0  0  0
   -2.5451   -1.2047   -0.8571 N   0  0  0  0  0
   -3.9158    1.6416    1.0060 N   0  0  0  0  0
    2.0858    0.7653   -0.2752 N   0  0  0  0  0
   -2.3943   -3.4155   -1.6816 N   0  0  0  0  0
    5.9290   -6.2826    2.1616 N   0  0  0  0  0
   -0.8109    1.4750    0.4508 N   0  0  0  0  0
    2.8505   -1.7337   -2.0131 O   0  0  0  0  0
    0.9256    1.1340   -2.2911 O   0  0  0  0  0
    4.4907   -0.1458   -2.1596 O   0  0  0  0  0
   -2.0112    2.1253   -1.4570 O   0  0  0  0  0
    4.8362   -6.2242    0.1403 O   0  0  0  0  0
   -3.4738    2.9634    1.1555 O   0  0  0  0  0
   -4.4474   -2.7884   -0.1119 S   0  0  0  0  0
    1.4297    0.4485    2.2779 S   0  0  0  0  0
    4.1465   -3.2769    0.9410 S   0  0  0  0  0
  1 29  1  0  0  0
  2  7  1  0  0  0
  2 17  1  0  0  0
  3 20  1  0  0  0
  3 29  1  0  0  0
  4  8  1  0  0  0
  4 19  1  0  0  0
  6 19  1  0  0  0
  7  9  1  0  0  0
  8 23  1  0  0  0
  9 22  1  0  0  0
 10 21  1  0  0  0
 11  5  1  0  0  0
 11 30  1  0  0  0
 12  6  1  0  0  0
 12 13  1  0  0  0
 12 22  1  0  0  0
 13 19  1  0  0  0
 13 30  1  0  0  0
 14 28  1  0  0  0
 15  5  1  0  0  0
 15 31  1  0  0  0
 16 10  1  0  0  0
 16 31  1  0  0  0
 18 28  1  0  0  0
  1  2  2  0  0  0
  3 17  2  0  0  0
  4  5  2  0  0  0
  6 24  2  0  0  0
  7 18  2  0  0  0
  8 25  2  0  0  0
  9 26  2  0  0  0
 10 27  2  0  0  0
M  CHG  1  23  -1
M  END
> <rmsd>
0.102866687

$$$$
ZINC65739906


 31 33  0  0  0  0  0  0  0  0999 V2000
   -4.2083   -1.2864    0.2905 C   0  0  0  0  0
   -3.1733   -0.4828   -0.1395 C   0  0  0  0  0
   -2.5628   -2.3532   -1.1083 C   0  0  0  0  0
    3.2530    0.4284   -0.1202 C   0  0  0  0  0
    3.8029   -0.0290    1.0298 C   0  0  0  0  0
    1.2401    1.7238   -0.9634 C   0  0  0  0  0
   -3.0395    0.9554    0.2171 C   0  0  0  0  0
    3.7895   -0.0510   -1.4640 C   0  0  0  0  0
   -1.8627    1.7306   -0.3146 C   0  0  0  0  0
    6.0677   -4.8735    1.0765 C   0  0  0  0  0
    3.2198    0.2578    2.4116 C   0  0  0  0  0
    0.4727    2.3459    0.2381 C   0  0  0  0  0
    1.7203    1.9723    1.0679 C   0  0  0  0  0
   -4.6046    3.4421    2.0332 C   0  0  0  0  0
    5.0389   -0.8922    1.0973 C   0  0  0  0  0
    6.2066   -3.3725    1.1218 C   0  0  0  0  0
   -2.2285   -1.0929   -0.9413 N   0  0  0  0  0
   -3.9162    1.5369    0.9790 N   0  0  0  0  0
    2.1800    1.2608   -0.1111 N   0  0  0  0  0
   -1.8481   -3.2442   -1.8453 N   0  0  0  0  0
    6.5695   -5.5081    2.1903 N   0  0  0  0  0
   -0.7923    1.6747    0.5337 N   0  0  0  0  0
    3.2285   -1.0834   -1.9155 O   0  0  0  0  0
    1.0592    1.6080   -2.1528 O   0  0  0  0  0
    4.7202    0.6509   -1.9388 O   0  0  0  0  0
   -1.9825    2.2941   -1.3906 O   0  0  0  0  0
    5.5444   -5.4633    0.1335 O   0  0  0  0  0
   -3.6025    2.8857    1.1963 O   0  0  0  0  0
   -4.0016   -2.8719   -0.3298 S   0  0  0  0  0
    1.4705    0.7785    2.4015 S   0  0  0  0  0
    4.5608   -2.6267    1.0224 S   0  0  0  0  0
  1 29  1  0  0  0
  2  7  1  0  0  0
  2 17  1  0  0  0
  3 20  1  0  0  0
  3 29  1  0  0  0
  4  8  1  0  0  0
  4 19  1  0  0  0
  6 19  1  0  0  0
  7  9  1  0  0  0
  8 23  1  0  0  0
  9 22  1  0  0  0
 10 21  1  0  0  0
 11  5  1  0  0  0
 11 30  1  0  0  0
 12  6  1  0  0  0
 12 13  1  0  0  0
 12 22  1  0  0  0
 13 19  1  0  0  0
 13 30  1  0  0  0
 14 28  1  0  0  0
 15  5  1  0  0  0
 15 31  1  0  0  0
 16 10  1  0  0  0
 16 31  1  0  0  0
 18 28  1  0  0  0
  1  2  2  0  0  0
  3 17  2  0  0  0
  4  5  2  0  0  0
  6 24  2  0  0  0
  7 18  2  0  0  0
  8 25  2  0  0  0
  9 26  2  0  0  0
 10 27  2  0  0  0
M  CHG  1  23  -1
M  END
> <rmsd>
0.402643919

$$$$
ZINC65739906


 31 33  0  0  0  0  0  0  0  0999 V2000
   -2.2556   -1.1546   -0.9591 C   0  0  0  0  0
   -3.1566   -0.4822   -0.1602 C   0  0  0  0  0
   -4.1211   -2.4519   -0.1594 C   0  0  0  0  0
    3.2682    0.4390   -0.1122 C   0  0  0  0  0
    3.8147   -0.0251    1.0367 C   0  0  0  0  0
    1.2561    1.7368   -0.9539 C   0  0  0  0  0
   -3.0264    0.9538    0.2063 C   0  0  0  0  0
    3.8101   -0.0307   -1.4572 C   0  0  0  0  0
   -1.8490    1.7343   -0.3161 C   0  0  0  0  0
    8.0491   -1.6019   -0.1041 C   0  0  0  0  0
    3.2263    0.2517    2.4184 C   0  0  0  0  0
    0.4835    2.3497    0.2489 C   0  0  0  0  0
    1.7288    1.9726    1.0806 C   0  0  0  0  0
   -4.6019    3.4260    2.0332 C   0  0  0  0  0
    5.0518   -0.8867    1.1030 C   0  0  0  0  0
    7.7762   -1.1220    1.2993 C   0  0  0  0  0
   -4.2272   -1.2243    0.2990 N   0  0  0  0  0
   -3.9067    1.5289    0.9690 N   0  0  0  0  0
    2.1938    1.2696   -0.1014 N   0  0  0  0  0
   -5.0104   -3.4465    0.1013 N   0  0  0  0  0
    7.8058   -2.9447   -0.2851 N   0  0  0  0  0
   -0.7814    1.6746    0.5356 N   0  0  0  0  0
    3.2524   -1.0610   -1.9174 O   0  0  0  0  0
    1.0796    1.6285   -2.1447 O   0  0  0  0  0
    4.7413    0.6757   -1.9241 O   0  0  0  0  0
   -1.9659    2.3047   -1.3888 O   0  0  0  0  0
    8.4414   -0.8536   -0.9969 O   0  0  0  0  0
   -3.5959    2.8767    1.1962 O   0  0  0  0  0
   -2.7582   -2.7833   -1.1482 S   0  0  0  0  0
    1.4762    0.7697    2.4055 S   0  0  0  0  0
    6.5061    0.1658    1.2435 S   0  0  0  0  0
  1 29  1  0  0  0
  2  7  1  0  0  0
  2 17  1  0  0  0
  3 20  1  0  0  0
  3 29  1  0  0  0
  4  8  1  0  0  0
  4 19  1  0  0  0
  6 19  1  0  0  0
  7  9  1  0  0  0
  8 23  1  0  0  0
  9 22  1  0  0  0
 10 21  1  0  0  0
 11  5  1  0  0  0
 11 30  1  0  0  0
 12  6  1  0  0  0
 12 13  1  0  0  0
 12 22  1  0  0  0
 13 19  1  0  0  0
 13 30  1  0  0  0
 14 28  1  0  0  0
 15  5  1  0  0  0
 15 31  1  0  0  0
 16 10  1  0  0  0
 16 31  1  0  0  0
 18 28  1  0  0  0
  1  2  2  0  0  0
  3 17  2  0  0  0
  4  5  2  0  0  0
  6 24  2  0  0  0
  7 18  2  0  0  0
  8 25  2  0  0  0
  9 26  2  0  0  0
 10 27  2  0  0  0
M  CHG  1  23  -1
M  END
> <rmsd>
0.360028803

$$$$
ZINC65739906


 31 33  0  0  0  0  0  0  0  0999 V2000
   -2.5781   -1.2642   -0.8728 C   0  0  0  0  0
   -3.3841   -0.4819   -0.0724 C   0  0  0  0  0
   -4.5212   -2.3537    0.0438 C   0  0  0  0  0
    3.0947   -0.1509   -0.2826 C   0  0  0  0  0
    3.6403   -0.6183    0.8654 C   0  0  0  0  0
    1.1772    1.2919   -1.1087 C   0  0  0  0  0
   -3.1114    0.9492    0.2289 C   0  0  0  0  0
    3.5409   -0.7199   -1.6244 C   0  0  0  0  0
   -1.8892    1.5981   -0.3657 C   0  0  0  0  0
    7.6694   -2.6187   -0.3522 C   0  0  0  0  0
    3.1318   -0.2357    2.2535 C   0  0  0  0  0
    0.5089    2.0189    0.0931 C   0  0  0  0  0
    1.7458    1.5620    0.8968 C   0  0  0  0  0
   -4.3878    3.6239    2.0033 C   0  0  0  0  0
    4.7965   -1.5863    0.9255 C   0  0  0  0  0
    7.4941   -2.0619    1.0383 C   0  0  0  0  0
   -4.4990   -1.1048    0.4537 N   0  0  0  0  0
   -3.9069    1.6314    0.9964 N   0  0  0  0  0
    2.1006    0.7742   -0.2699 N   0  0  0  0  0
   -5.4859   -3.2520    0.3761 N   0  0  0  0  0
    7.2996   -3.9396   -0.4685 N   0  0  0  0  0
   -0.7998    1.4739    0.4508 N   0  0  0  0  0
    2.8758   -1.7119   -2.0218 O   0  0  0  0  0
    0.9467    1.1543   -2.2873 O   0  0  0  0  0
    4.5136   -0.1201   -2.1521 O   0  0  0  0  0
   -1.9947    2.1348   -1.4567 O   0  0  0  0  0
    8.0935   -1.9444   -1.2885 O   0  0  0  0  0
   -3.4677    2.9529    1.1562 O   0  0  0  0  0
   -3.2321   -2.8462   -0.9762 S   0  0  0  0  0
    1.4363    0.4392    2.2788 S   0  0  0  0  0
    6.3438   -0.6666    0.9720 S   0  0  0  0  0
  1 29  1  0  0  0
  2  7  1  0  0  0
  2 17  1  0  0  0
  3 20  1  0  0  0
  3 29  1  0  0  0
  4  8  1  0  0  0
  4 19  1  0  0  0
  6 19  1  0  0  0
  7  9  1  0  0  0
  8 23  1  0  0  0
  9 22  1  0  0  0
 10 21  1  0  0  0
 11  5  1  0  0  0
 11 30  1  0  0  0
 12  6  1  0  0  0
 12 13  1  0  0  0
 12 22  1  0  0  0
 13 19  1  0  0  0
 13 30  1  0  0  0
 14 28  1  0  0  0
 15  5  1  0  0  0
 15 31  1  0  0  0
 16 10  1  0  0  0
 16 31  1  0  0  0
 18 28  1  0  0  0
  1  2  2  0  0  0
  3 17  2  0  0  0
  4  5  2  0  0  0
  6 24  2  0  0  0
  7 18  2  0  0  0
  8 25  2  0  0  0
  9 26  2  0  0  0
 10 27  2  0  0  0
M  CHG  1  23  -1
M  END
> <rmsd>
0.0605438761

$$$$
ZINC65739906


 31 33  0  0  0  0  0  0  0  0999 V2000
   -2.2554   -1.1553   -0.9586 C   0  0  0  0  0
   -3.1565   -0.4829   -0.1598 C   0  0  0  0  0
   -4.1208   -2.4526   -0.1588 C   0  0  0  0  0
    3.2682    0.4388   -0.1122 C   0  0  0  0  0
    3.8149   -0.0251    1.0368 C   0  0  0  0  0
    1.2560    1.7363   -0.9540 C   0  0  0  0  0
   -3.0263    0.9532    0.2065 C   0  0  0  0  0
    3.8102   -0.0311   -1.4571 C   0  0  0  0  0
   -1.8490    1.7337   -0.3161 C   0  0  0  0  0
    6.6661   -3.3831    2.5575 C   0  0  0  0  0
    3.2264    0.2518    2.4184 C   0  0  0  0  0
    0.4834    2.3494    0.2488 C   0  0  0  0  0
    1.7288    1.9725    1.0805 C   0  0  0  0  0
   -4.6019    3.4255    2.0331 C   0  0  0  0  0
    5.0520   -0.8867    1.1031 C   0  0  0  0  0
    6.2239   -3.3652    1.1158 C   0  0  0  0  0
   -4.2270   -1.2250    0.2995 N   0  0  0  0  0
   -3.9067    1.5283    0.9691 N   0  0  0  0  0
    2.1938    1.2693   -0.1014 N   0  0  0  0  0
   -5.0100   -3.4473    0.1021 N   0  0  0  0  0
    7.8263   -2.6790    2.7875 N   0  0  0  0  0
   -0.7814    1.6742    0.5356 N   0  0  0  0  0
    3.2525   -1.0615   -1.9172 O   0  0  0  0  0
    1.0795    1.6278   -2.1448 O   0  0  0  0  0
    4.7413    0.6754   -1.9241 O   0  0  0  0  0
   -1.9660    2.3039   -1.3888 O   0  0  0  0  0
    6.0362   -3.9659    3.4377 O   0  0  0  0  0
   -3.5960    2.8762    1.1962 O   0  0  0  0  0
   -2.7580   -2.7841   -1.1476 S   0  0  0  0  0
    1.4763    0.7697    2.4056 S   0  0  0  0  0
    4.5772   -2.6214    1.0153 S   0  0  0  0  0
  1 29  1  0  0  0
  2  7  1  0  0  0
  2 17  1  0  0  0
  3 20  1  0  0  0
  3 29  1  0  0  0
  4  8  1  0  0  0
  4 19  1  0  0  0
  6 19  1  0  0  0
  7  9  1  0  0  0
  8 23  1  0  0  0
  9 22  1  0  0  0
 10 21  1  0  0  0
 11  5  1  0  0  0
 11 30  1  0  0  0
 12  6  1  0  0  0
 12 13  1  0  0  0
 12 22  1  0  0  0
 13 19  1  0  0  0
 13 30  1  0  0  0
 14 28  1  0  0  0
 15  5  1  0  0  0
 15 31  1  0  0  0
 16 10  1  0  0  0
 16 31  1  0  0  0
 18 28  1  0  0  0
  1  2  2  0  0  0
  3 17  2  0  0  0
  4  5  2  0  0  0
  6 24  2  0  0  0
  7 18  2  0  0  0
  8 25  2  0  0  0
  9 26  2  0  0  0
 10 27  2  0  0  0
M  CHG  1  23  -1
M  END
> <rmsd>
0.35981527

$$$$
ZINC65739906


 31 33  0  0  0  0  0  0  0  0999 V2000
   -2.5780   -1.2650   -0.8723 C   0  0  0  0  0
   -3.3840   -0.4826   -0.0720 C   0  0  0  0  0
   -4.5210   -2.3544    0.0445 C   0  0  0  0  0
    3.0948   -0.1512   -0.2825 C   0  0  0  0  0
    3.6405   -0.6184    0.8656 C   0  0  0  0  0
    1.1771    1.2914   -1.1087 C   0  0  0  0  0
   -3.1114    0.9486    0.2291 C   0  0  0  0  0
    3.5410   -0.7203   -1.6242 C   0  0  0  0  0
   -1.8892    1.5975   -0.3656 C   0  0  0  0  0
    6.2333   -4.1618    2.4275 C   0  0  0  0  0
    3.1320   -0.2356    2.2537 C   0  0  0  0  0
    0.5089    2.0186    0.0930 C   0  0  0  0  0
    1.7458    1.5618    0.8967 C   0  0  0  0  0
   -4.3879    3.6234    2.0032 C   0  0  0  0  0
    4.7967   -1.5863    0.9257 C   0  0  0  0  0
    5.7403   -4.1592    1.0022 C   0  0  0  0  0
   -4.4989   -1.1054    0.4542 N   0  0  0  0  0
   -3.9069    1.6309    0.9965 N   0  0  0  0  0
    2.1006    0.7739   -0.2698 N   0  0  0  0  0
   -5.4856   -3.2527    0.3770 N   0  0  0  0  0
    7.4601   -3.5584    2.5881 N   0  0  0  0  0
   -0.7999    1.4735    0.4509 N   0  0  0  0  0
    2.8759   -1.7124   -2.0214 O   0  0  0  0  0
    0.9466    1.1536   -2.2872 O   0  0  0  0  0
    4.5136   -0.1205   -2.1520 O   0  0  0  0  0
   -1.9949    2.1341   -1.4567 O   0  0  0  0  0
    5.5873   -4.6501    3.3523 O   0  0  0  0  0
   -3.4678    2.9524    1.1562 O   0  0  0  0  0
   -3.2319   -2.8470   -0.9755 S   0  0  0  0  0
    1.4364    0.4392    2.2789 S   0  0  0  0  0
    4.1647   -3.2725    0.9270 S   0  0  0  0  0
  1 29  1  0  0  0
  2  7  1  0  0  0
  2 17  1  0  0  0
  3 20  1  0  0  0
  3 29  1  0  0  0
  4  8  1  0  0  0
  4 19  1  0  0  0
  6 19  1  0  0  0
  7  9  1  0  0  0
  8 23  1  0  0  0
  9 22  1  0  0  0
 10 21  1  0  0  0
 11  5  1  0  0  0
 11 30  1  0  0  0
 12  6  1  0  0  0
 12 13  1  0  0  0
 12 22  1  0  0  0
 13 19  1  0  0  0
 13 30  1  0  0  0
 14 28  1  0  0  0
 15  5  1  0  0  0
 15 31  1  0  0  0
 16 10  1  0  0  0
 16 31  1  0  0  0
 18 28  1  0  0  0
  1  2  2  0  0  0
  3 17  2  0  0  0
  4  5  2  0  0  0
  6 24  2  0  0  0
  7 18  2  0  0  0
  8 25  2  0  0  0
  9 26  2  0  0  0
 10 27  2  0  0  0
M  CHG  1  23  -1
M  END
> <rmsd>
0.0604356229

$$$$
ZINC64580603


 34 37  0  0  0  0  0  0  0  0999 V2000
    1.0213    2.8839   -2.1896 C   0  0  0  0  0
   -0.0382    2.7668   -1.2899 C   0  0  0  0  0
    0.9954    0.8065   -0.3277 C   0  0  0  0  0
   -2.6213   -2.6132    0.4849 C   0  0  0  0  0
   -3.0417   -2.2139   -1.8604 C   0  0  0  0  0
    2.0548    0.9234   -1.2273 C   0  0  0  0  0
   -2.8496   -3.1013   -0.8016 C   0  0  0  0  0
   -2.5852   -1.2375    0.7127 C   0  0  0  0  0
   -3.0056   -0.8381   -1.6326 C   0  0  0  0  0
    2.0678    1.9621   -2.1584 C   0  0  0  0  0
   -0.0511    1.7282   -0.3590 C   0  0  0  0  0
   -2.7773   -0.3500   -0.3461 C   0  0  0  0  0
    3.1488   -0.0644   -1.1731 C   0  0  0  0  0
    8.4295    3.2782   -7.6766 C   0  0  0  0  0
    7.3232    2.3110   -8.0920 C   0  0  0  0  0
    8.7746    3.1419   -6.1954 C   0  0  0  0  0
    6.0840    2.4611   -7.2118 C   0  0  0  0  0
    7.5374    3.2929   -5.3125 C   0  0  0  0  0
    4.2717    2.9155   -2.6642 C   0  0  0  0  0
    2.8452    2.0454   -4.5090 C   0  0  0  0  0
    5.5182    2.5116   -3.4399 C   0  0  0  0  0
    4.0956    1.6481   -5.2833 C   0  0  0  0  0
    6.4418    2.3163   -5.7344 C   0  0  0  0  0
   -2.8871   -4.5724   -1.0454 C   0  0  0  0  0
   -2.3370   -0.7519    2.1041 C   0  0  0  0  0
   -3.2153    0.0823   -2.7910 C   0  0  0  0  0
    3.1215    2.0969   -3.0698 N   0  0  0  0  0
   -1.1360    1.6088    0.5616 N   0  0  0  0  0
    5.2263    2.5750   -4.9177 N   0  0  0  0  0
    3.0528   -1.1306   -1.8865 O   0  0  0  0  0
    4.1593    0.1756   -0.4141 O   0  0  0  0  0
   -3.6867    1.6730    0.9982 O   0  0  0  0  0
   -2.8582    2.0605   -1.3391 O   0  0  0  0  0
   -2.7297    1.3955   -0.0567 S   0  0  0  0  0
  1 10  1  0  0  0
  2 11  1  0  0  0
  3  6  1  0  0  0
  4  7  1  0  0  0
  5  9  1  0  0  0
  6 13  1  0  0  0
  8 12  1  0  0  0
 10 27  1  0  0  0
 11 28  1  0  0  0
 13 30  1  0  0  0
 14 15  1  0  0  0
 14 16  1  0  0  0
 15 17  1  0  0  0
 16 18  1  0  0  0
 17 23  1  0  0  0
 18 23  1  0  0  0
 19 21  1  0  0  0
 19 27  1  0  0  0
 20 22  1  0  0  0
 20 27  1  0  0  0
 21 29  1  0  0  0
 22 29  1  0  0  0
 23 29  1  0  0  0
 24  7  1  0  0  0
 25  8  1  0  0  0
 26  9  1  0  0  0
 34 12  1  0  0  0
 34 28  1  0  0  0
  1  2  2  0  0  0
  3 11  2  0  0  0
  4  8  2  0  0  0
  5  7  2  0  0  0
  6 10  2  0  0  0
  9 12  2  0  0  0
 13 31  2  0  0  0
 34 32  2  0  0  0
 34 33  2  0  0  0
M  CHG  2  29   1  30  -1
M  END
> <rmsd>
0.707332015

$$$$
ZINC64580603


 34 37  0  0  0  0  0  0  0  0999 V2000
    0.8690    2.5243   -2.5704 C   0  0  0  0  0
   -0.1070    2.5011   -1.5741 C   0  0  0  0  0
    0.8584    0.4766   -0.6758 C   0  0  0  0  0
   -2.9185   -2.6391    0.5333 C   0  0  0  0  0
   -3.5258   -2.2346   -1.7697 C   0  0  0  0  0
    1.8343    0.4998   -1.6721 C   0  0  0  0  0
   -3.3039   -3.1223   -0.7171 C   0  0  0  0  0
   -2.7551   -1.2680    0.7311 C   0  0  0  0  0
   -3.3625   -0.8634   -1.5720 C   0  0  0  0  0
    1.8396    1.5237   -2.6195 C   0  0  0  0  0
   -0.1122    1.4772   -0.6268 C   0  0  0  0  0
   -2.9771   -0.3802   -0.3216 C   0  0  0  0  0
    2.8491   -0.5702   -1.7014 C   0  0  0  0  0
    7.7357    2.2736   -8.7291 C   0  0  0  0  0
    6.5240    1.3916   -9.0217 C   0  0  0  0  0
    8.2073    2.1274   -7.2841 C   0  0  0  0  0
    5.3884    1.6484   -8.0330 C   0  0  0  0  0
    7.0740    2.3851   -6.2929 C   0  0  0  0  0
    4.0529    2.2953   -3.3458 C   0  0  0  0  0
    2.3962    1.5191   -5.0334 C   0  0  0  0  0
    5.1860    1.7861   -4.2264 C   0  0  0  0  0
    3.5337    1.0160   -5.9131 C   0  0  0  0  0
    5.8715    1.4928   -6.5928 C   0  0  0  0  0
   -3.4775   -4.5886   -0.9289 C   0  0  0  0  0
   -2.3403   -0.7876    2.0841 C   0  0  0  0  0
   -3.6088    0.0574   -2.7228 C   0  0  0  0  0
    2.8100    1.5650   -3.6274 N   0  0  0  0  0
   -1.1115    1.4538    0.3927 N   0  0  0  0  0
    4.7620    1.8554   -5.6716 N   0  0  0  0  0
    2.6044   -1.6335   -2.3828 O   0  0  0  0  0
    3.9420   -0.4017   -1.0443 O   0  0  0  0  0
   -3.5972    1.7230    1.0634 O   0  0  0  0  0
   -2.9651    2.0178   -1.3476 O   0  0  0  0  0
   -2.7680    1.3593   -0.0706 S   0  0  0  0  0
  1 10  1  0  0  0
  2 11  1  0  0  0
  3  6  1  0  0  0
  4  7  1  0  0  0
  5  9  1  0  0  0
  6 13  1  0  0  0
  8 12  1  0  0  0
 10 27  1  0  0  0
 11 28  1  0  0  0
 13 30  1  0  0  0
 14 15  1  0  0  0
 14 16  1  0  0  0
 15 17  1  0  0  0
 16 18  1  0  0  0
 17 23  1  0  0  0
 18 23  1  0  0  0
 19 21  1  0  0  0
 19 27  1  0  0  0
 20 22  1  0  0  0
 20 27  1  0  0  0
 21 29  1  0  0  0
 22 29  1  0  0  0
 23 29  1  0  0  0
 24  7  1  0  0  0
 25  8  1  0  0  0
 26  9  1  0  0  0
 34 12  1  0  0  0
 34 28  1  0  0  0
  1  2  2  0  0  0
  3 11  2  0  0  0
  4  8  2  0  0  0
  5  7  2  0  0  0
  6 10  2  0  0  0
  9 12  2  0  0  0
 13 31  2  0  0  0
 34 32  2  0  0  0
 34 33  2  0  0  0
M  CHG  2  29   1  30  -1
M  END
> <rmsd>
0.52619648

$$$$
ZINC32962132


 34 36  0  0  0  0  0  0  0  0999 V2000
   -3.2372   -2.5898    0.4247 C   0  0  0  0  0
   -2.4212   -2.2322   -1.8210 C   0  0  0  0  0
   -0.0687    2.7416   -1.3425 C   0  0  0  0  0
    0.9796    2.8472   -2.2565 C   0  0  0  0  0
   -3.2025   -1.2148    0.6562 C   0  0  0  0  0
   -2.3865   -0.8572   -1.5895 C   0  0  0  0  0
    0.9942    0.8145   -0.3459 C   0  0  0  0  0
    2.0426    0.9201   -1.2599 C   0  0  0  0  0
   -2.8464   -3.0986   -0.8140 C   0  0  0  0  0
   -0.0614    1.7252   -0.3872 C   0  0  0  0  0
    2.0353    1.9365   -2.2152 C   0  0  0  0  0
   -2.7772   -0.3485   -0.3508 C   0  0  0  0  0
    3.1472   -0.0552   -1.1942 C   0  0  0  0  0
   -2.5213   -7.0505   -2.6770 C   0  0  0  0  0
   -1.5353   -6.6799   -1.5733 C   0  0  0  0  0
   -3.9112   -6.4840   -2.4034 C   0  0  0  0  0
   -1.4833   -5.1700   -1.3470 C   0  0  0  0  0
   -3.8709   -4.9732   -2.1813 C   0  0  0  0  0
   -2.8819   -4.5909   -1.0649 C   0  0  0  0  0
    5.9567    2.0973   -2.3119 C   0  0  0  0  0
    5.7496    4.5950   -2.1049 C   0  0  0  0  0
    1.8282    1.8667   -5.8558 C   0  0  0  0  0
    2.4780   -0.5627   -5.8639 C   0  0  0  0  0
    3.8817    3.2693   -3.2023 C   0  0  0  0  0
    3.3902    0.9726   -4.0579 C   0  0  0  0  0
    4.9887    3.2690   -2.1411 C   0  0  0  0  0
    2.2132    0.6651   -4.9915 C   0  0  0  0  0
   -1.1429    1.6162    0.5546 N   0  0  0  0  0
    3.0870    2.0599   -3.1505 N   0  0  0  0  0
    3.0546   -1.1388   -1.8813 O   0  0  0  0  0
    4.1632    0.2128   -0.4521 O   0  0  0  0  0
   -3.6823    1.6685    1.0051 O   0  0  0  0  0
   -2.8731    2.0640   -1.3376 O   0  0  0  0  0
   -2.7333    1.3729   -0.0618 S   0  0  0  0  0
  1  9  1  0  0  0
  2  6  1  0  0  0
  3 10  1  0  0  0
  4 11  1  0  0  0
  5 12  1  0  0  0
  7  8  1  0  0  0
  8 13  1  0  0  0
 10 28  1  0  0  0
 11 29  1  0  0  0
 13 30  1  0  0  0
 14 15  1  0  0  0
 14 16  1  0  0  0
 15 17  1  0  0  0
 16 18  1  0  0  0
 17 19  1  0  0  0
 18 19  1  0  0  0
 19  9  1  0  0  0
 20 26  1  0  0  0
 21 26  1  0  0  0
 22 27  1  0  0  0
 23 27  1  0  0  0
 24 26  1  0  0  0
 24 29  1  0  0  0
 25 27  1  0  0  0
 25 29  1  0  0  0
 34 12  1  0  0  0
 34 28  1  0  0  0
  1  5  2  0  0  0
  2  9  2  0  0  0
  3  4  2  0  0  0
  6 12  2  0  0  0
  7 10  2  0  0  0
  8 11  2  0  0  0
 13 31  2  0  0  0
 34 32  2  0  0  0
 34 33  2  0  0  0
M  CHG  1  30  -1
M  END
> <rmsd>
0.711512864

$$$$
ZINC32962132


 34 36  0  0  0  0  0  0  0  0999 V2000
   -3.5409   -2.5668    0.5353 C   0  0  0  0  0
   -2.9081   -2.3059   -1.7817 C   0  0  0  0  0
   -0.1355    2.4677   -1.6193 C   0  0  0  0  0
    0.8299    2.4764   -2.6260 C   0  0  0  0  0
   -3.3764   -1.1962    0.7346 C   0  0  0  0  0
   -2.7437   -0.9352   -1.5825 C   0  0  0  0  0
    0.8584    0.4745   -0.6833 C   0  0  0  0  0
    1.8238    0.4831   -1.6900 C   0  0  0  0  0
   -3.3067   -3.1218   -0.7229 C   0  0  0  0  0
   -0.1212    1.4668   -0.6479 C   0  0  0  0  0
    1.8095    1.4840   -2.6615 C   0  0  0  0  0
   -2.9779   -0.3803   -0.3243 C   0  0  0  0  0
    2.8491   -0.5772   -1.7043 C   0  0  0  0  0
   -3.4672   -7.1113   -2.5262 C   0  0  0  0  0
   -2.3581   -6.8069   -1.5237 C   0  0  0  0  0
   -4.7771   -6.4310   -2.1401 C   0  0  0  0  0
   -2.1663   -5.3032   -1.3340 C   0  0  0  0  0
   -4.5971   -4.9255   -1.9535 C   0  0  0  0  0
   -3.4829   -4.6095   -0.9389 C   0  0  0  0  0
    5.7060    1.3266   -3.1146 C   0  0  0  0  0
    5.7171    3.8354   -2.9410 C   0  0  0  0  0
    1.2652    1.3831   -6.2663 C   0  0  0  0  0
    1.7172   -1.0908   -6.2831 C   0  0  0  0  0
    3.6575    2.6504   -3.8381 C   0  0  0  0  0
    2.9096    0.3897   -4.5986 C   0  0  0  0  0
    4.8535    2.5747   -2.8813 C   0  0  0  0  0
    1.6315    0.1659   -5.4158 C   0  0  0  0  0
   -1.1172    1.4579    0.3896 N   0  0  0  0  0
    2.7776    1.5098   -3.6901 N   0  0  0  0  0
    2.6084   -1.6588   -2.3578 O   0  0  0  0  0
    3.9467   -0.3823   -1.0624 O   0  0  0  0  0
   -3.5926    1.7208    1.0661 O   0  0  0  0  0
   -2.9724    2.0188   -1.3476 O   0  0  0  0  0
   -2.7716    1.3355   -0.0757 S   0  0  0  0  0
  1  9  1  0  0  0
  2  6  1  0  0  0
  3 10  1  0  0  0
  4 11  1  0  0  0
  5 12  1  0  0  0
  7  8  1  0  0  0
  8 13  1  0  0  0
 10 28  1  0  0  0
 11 29  1  0  0  0
 13 30  1  0  0  0
 14 15  1  0  0  0
 14 16  1  0  0  0
 15 17  1  0  0  0
 16 18  1  0  0  0
 17 19  1  0  0  0
 18 19  1  0  0  0
 19  9  1  0  0  0
 20 26  1  0  0  0
 21 26  1  0  0  0
 22 27  1  0  0  0
 23 27  1  0  0  0
 24 26  1  0  0  0
 24 29  1  0  0  0
 25 27  1  0  0  0
 25 29  1  0  0  0
 34 12  1  0  0  0
 34 28  1  0  0  0
  1  5  2  0  0  0
  2  9  2  0  0  0
  3  4  2  0  0  0
  6 12  2  0  0  0
  7 10  2  0  0  0
  8 11  2  0  0  0
 13 31  2  0  0  0
 34 32  2  0  0  0
 34 33  2  0  0  0
M  CHG  1  30  -1
M  END
> <rmsd>
0.527868569

$$$$
ZINC59122116


 35 38  0  0  0  0  0  0  0  0999 V2000
   -7.8097   -2.6305   -3.0118 C   0  0  0  0  0
   -4.3831   -2.1978    0.9786 C   0  0  0  0  0
   -7.0626   -3.7041   -2.5273 C   0  0  0  0  0
   -7.2902   -1.8173   -4.0190 C   0  0  0  0  0
   -3.0983   -2.3854    0.4687 C   0  0  0  0  0
   -5.3193   -1.4585    0.2556 C   0  0  0  0  0
    2.6277    0.5139    1.5348 C   0  0  0  0  0
   -5.7958   -3.9645   -3.0499 C   0  0  0  0  0
   -6.0234   -2.0777   -4.5418 C   0  0  0  0  0
   -2.7498   -1.8334   -0.7639 C   0  0  0  0  0
   -4.9708   -0.9065   -0.9770 C   0  0  0  0  0
    1.3161    0.9885    1.5285 C   0  0  0  0  0
    3.2035    0.0402    0.3558 C   0  0  0  0  0
    1.1562    0.5157   -0.8353 C   0  0  0  0  0
   -5.2763   -3.1513   -4.0572 C   0  0  0  0  0
   -3.6859   -1.0939   -1.4868 C   0  0  0  0  0
    0.5803    0.9895    0.3436 C   0  0  0  0  0
    2.4677    0.0412   -0.8292 C   0  0  0  0  0
   -2.9206   -1.2286   -3.8197 C   0  0  0  0  0
   -3.3374    0.7698   -3.0835 C   0  0  0  0  0
   -3.3667    2.4451    0.4854 C   0  0  0  0  0
   -2.6543    1.9377   -0.7211 C   0  0  0  0  0
   -3.2415    3.9119    0.7791 C   0  0  0  0  0
   -3.9055   -3.4330   -4.6226 C   0  0  0  0  0
   -2.7754   -2.6963   -3.8632 C   0  0  0  0  0
   -2.6793   -0.3883   -4.8006 N   0  0  0  0  0
   -2.9446    0.8831   -4.3323 N   0  0  0  0  0
   -1.4520    1.4841   -0.8037 N   0  0  0  0  0
   -3.3372   -0.5426   -2.7195 N   0  0  0  0  0
   -0.7398    1.4670    0.3374 N   0  0  0  0  0
    3.0547   -0.4431   -2.0284 N   0  0  0  0  0
    4.2353   -0.8667   -1.9993 O   0  0  0  0  0
   -4.0512    1.6598    1.1254 O   0  0  0  0  0
    2.3763   -0.4343   -3.0838 O   0  0  0  0  0
   -3.8049    2.1090   -2.0033 S   0  0  0  0  0
  1  3  1  0  0  0
  2  5  1  0  0  0
  4  9  1  0  0  0
  6 11  1  0  0  0
  7 13  1  0  0  0
  8 15  1  0  0  0
 10 16  1  0  0  0
 12 17  1  0  0  0
 14 18  1  0  0  0
 16 29  1  0  0  0
 17 30  1  0  0  0
 18 31  1  0  0  0
 19 29  1  0  0  0
 20 29  1  0  0  0
 20 35  1  0  0  0
 21 22  1  0  0  0
 22 35  1  0  0  0
 23 21  1  0  0  0
 24 15  1  0  0  0
 24 25  1  0  0  0
 25 19  1  0  0  0
 26 27  1  0  0  0
 30 28  1  0  0  0
 31 32  1  0  0  0
  1  4  2  0  0  0
  2  6  2  0  0  0
  3  8  2  0  0  0
  5 10  2  0  0  0
  7 12  2  0  0  0
  9 15  2  0  0  0
 11 16  2  0  0  0
 13 18  2  0  0  0
 14 17  2  0  0  0
 19 26  2  0  0  0
 20 27  2  0  0  0
 21 33  2  0  0  0
 22 28  2  0  0  0
 31 34  2  0  0  0
M  CHG  2  31   1  32  -1
M  END
> <rmsd>
0.367851377

$$$$
ZINC35401887


 35 39  0  0  0  0  0  0  0  0999 V2000
   -3.5639   -2.9818   -0.9204 C   0  0  0  0  0
   -1.7414    9.1788    1.5219 C   0  0  0  0  0
   -3.2231   -2.6429    0.3889 C   0  0  0  0  0
   -3.7870   -1.9797   -1.8647 C   0  0  0  0  0
   -0.7923    8.9638    0.5113 C   0  0  0  0  0
   -2.5484    8.1338    1.9713 C   0  0  0  0  0
   -3.1056   -1.3019    0.7542 C   0  0  0  0  0
   -3.6696   -0.6386   -1.4995 C   0  0  0  0  0
   -0.6344    7.7004   -0.0666 C   0  0  0  0  0
    0.3331    0.2897   -0.9203 C   0  0  0  0  0
    1.5274   -0.3050   -1.3269 C   0  0  0  0  0
    2.7506    1.0995    0.2122 C   0  0  0  0  0
   -2.3856    6.8841    1.3925 C   0  0  0  0  0
    1.5561    1.6942    0.6188 C   0  0  0  0  0
   -3.3289   -0.2998   -0.1900 C   0  0  0  0  0
   -1.4355    6.6600    0.3777 C   0  0  0  0  0
    0.3473    1.2894    0.0525 C   0  0  0  0  0
    2.7362    0.0998   -0.7606 C   0  0  0  0  0
   -3.8087    2.7303    1.3948 C   0  0  0  0  0
   -2.7671    3.3203    0.5672 C   0  0  0  0  0
   -2.4349    4.6158    0.6791 C   0  0  0  0  0
   -3.1205    5.5836    1.6841 C   0  0  0  0  0
    1.6004    2.7625    1.6625 C   0  0  0  0  0
   -2.8862    5.1512    3.1381 C   0  0  0  0  0
   -4.6193    5.7385    1.3919 C   0  0  0  0  0
   -0.5787    4.8522   -1.0762 C   0  0  0  0  0
   -4.0485    1.4831    1.1740 N   0  0  0  0  0
   -1.4681    5.3247   -0.0367 N   0  0  0  0  0
   -3.2116    1.0389    0.1742 N   0  0  0  0  0
   -0.8693    1.8794    0.4508 N   0  0  0  0  0
    3.9520   -0.5059   -1.1748 N   0  0  0  0  0
    3.9163   -1.4031   -2.0512 O   0  0  0  0  0
    5.0285   -0.1274   -0.6532 O   0  0  0  0  0
   -2.0525    2.3171   -2.0177 O   0  0  0  0  0
   -2.1618    2.1240   -0.5317 P   0  0  0  0  0
  1  3  1  0  0  0
  2  5  1  0  0  0
  4  8  1  0  0  0
  6 13  1  0  0  0
  7 15  1  0  0  0
  9 16  1  0  0  0
 10 17  1  0  0  0
 11 18  1  0  0  0
 12 14  1  0  0  0
 15 29  1  0  0  0
 16 28  1  0  0  0
 17 30  1  0  0  0
 18 31  1  0  0  0
 19 20  1  0  0  0
 21 28  1  0  0  0
 22 13  1  0  0  0
 22 21  1  0  0  0
 22 24  1  0  0  0
 22 25  1  0  0  0
 23 14  1  0  0  0
 26 28  1  0  0  0
 29 27  1  0  0  0
 31 32  1  0  0  0
 35 20  1  0  0  0
 35 29  1  0  0  0
 35 30  1  0  0  0
  1  4  2  0  0  0
  2  6  2  0  0  0
  3  7  2  0  0  0
  5  9  2  0  0  0
  8 15  2  0  0  0
 10 11  2  0  0  0
 12 18  2  0  0  0
 13 16  2  0  0  0
 14 17  2  0  0  0
 19 27  2  0  0  0
 20 21  2  0  0  0
 31 33  2  0  0  0
 35 34  2  0  0  0
M  CHG  2  31   1  32  -1
M  END
> <rmsd>
0.459007084

$$$$
ZINC59121488


 35 38  0  0  0  0  0  0  0  0999 V2000
   -2.4263   -5.5132   -3.8591 C   0  0  0  0  0
   -4.3619   -2.1170    1.0004 C   0  0  0  0  0
   -1.3273   -4.6901   -4.1051 C   0  0  0  0  0
   -3.6757   -4.9496   -3.6002 C   0  0  0  0  0
   -3.0737   -2.3120    0.5022 C   0  0  0  0  0
   -5.2995   -1.4069    0.2506 C   0  0  0  0  0
    2.5883    0.4773    1.5458 C   0  0  0  0  0
   -1.4778   -3.3034   -4.0920 C   0  0  0  0  0
   -3.8262   -3.5630   -3.5872 C   0  0  0  0  0
   -2.7232   -1.7970   -0.7458 C   0  0  0  0  0
   -4.9490   -0.8918   -0.9974 C   0  0  0  0  0
    1.2759    0.9491    1.5266 C   0  0  0  0  0
    3.1823    0.0199    0.3695 C   0  0  0  0  0
    1.1514    0.5062   -0.8453 C   0  0  0  0  0
   -2.6572   -0.3800   -4.8114 C   0  0  0  0  0
   -2.7272   -2.7399   -3.8330 C   0  0  0  0  0
   -3.6609   -1.0869   -1.4957 C   0  0  0  0  0
    0.5574    0.9635    0.3311 C   0  0  0  0  0
    2.4639    0.0344   -0.8261 C   0  0  0  0  0
   -2.8831   -1.3044   -3.8189 C   0  0  0  0  0
   -3.3235    0.7419   -3.1297 C   0  0  0  0  0
   -2.6648    1.9156   -0.7643 C   0  0  0  0  0
   -3.3879    2.4084    0.4394 C   0  0  0  0  0
   -3.3252    5.8008    1.7607 C   0  0  0  0  0
   -3.7065    4.3360    1.7351 C   0  0  0  0  0
   -2.9330    0.8920   -4.3759 N   0  0  0  0  0
   -1.4609    1.4648   -0.8387 N   0  0  0  0  0
   -3.3091   -0.5708   -2.7477 N   0  0  0  0  0
   -0.7634    1.4383    0.3116 N   0  0  0  0  0
    3.0693   -0.4332   -2.0226 N   0  0  0  0  0
    4.2504   -0.8547   -1.9817 O   0  0  0  0  0
   -4.0458    1.6639    1.1403 O   0  0  0  0  0
    2.4063   -0.4124   -3.0876 O   0  0  0  0  0
   -3.1235    3.7229    0.5820 O   0  0  0  0  0
   -3.8155    2.0714   -2.0484 S   0  0  0  0  0
  1  3  1  0  0  0
  2  5  1  0  0  0
  4  9  1  0  0  0
  6 11  1  0  0  0
  7 13  1  0  0  0
  8 16  1  0  0  0
 10 17  1  0  0  0
 12 18  1  0  0  0
 14 19  1  0  0  0
 15 26  1  0  0  0
 16 20  1  0  0  0
 17 28  1  0  0  0
 18 29  1  0  0  0
 19 30  1  0  0  0
 20 28  1  0  0  0
 21 28  1  0  0  0
 21 35  1  0  0  0
 22 23  1  0  0  0
 22 35  1  0  0  0
 23 34  1  0  0  0
 24 25  1  0  0  0
 25 34  1  0  0  0
 29 27  1  0  0  0
 30 31  1  0  0  0
  1  4  2  0  0  0
  2  6  2  0  0  0
  3  8  2  0  0  0
  5 10  2  0  0  0
  7 12  2  0  0  0
  9 16  2  0  0  0
 11 17  2  0  0  0
 13 19  2  0  0  0
 14 18  2  0  0  0
 15 20  2  0  0  0
 21 26  2  0  0  0
 22 27  2  0  0  0
 23 32  2  0  0  0
 30 33  2  0  0  0
M  CHG  2  30   1  31  -1
M  END
> <rmsd>
0.364904016

$$$$
ZINC59482348


 36 38  0  0  0  0  0  0  0  0999 V2000
   -3.6864    5.2488   -1.2185 C   0  0  0  0  0
   -2.3691    5.5222   -1.5861 C   0  0  0  0  0
   -4.0255    3.9896   -0.7233 C   0  0  0  0  0
   -1.3905    4.5363   -1.4587 C   0  0  0  0  0
   -4.0850   -3.4482   -0.3525 C   0  0  0  0  0
    2.3700   -1.0197    1.7742 C   0  0  0  0  0
   -4.1001   -1.1667    0.4423 C   0  0  0  0  0
   -3.1933   -1.6806   -1.7373 C   0  0  0  0  0
    1.3692    0.2659   -0.0098 C   0  0  0  0  0
    0.5447    0.4899    2.2500 C   0  0  0  0  0
   -3.0470    3.0037   -0.5959 C   0  0  0  0  0
   -1.7295    3.2770   -0.9636 C   0  0  0  0  0
   -4.3923   -2.5164    0.6390 C   0  0  0  0  0
   -3.4855   -3.0303   -1.5406 C   0  0  0  0  0
    2.3113   -0.6659    0.4263 C   0  0  0  0  0
    1.4867   -0.4418    2.6861 C   0  0  0  0  0
   -3.5007   -0.7488   -0.7459 C   0  0  0  0  0
    0.4859    0.8438    0.9020 C   0  0  0  0  0
   -3.4324    1.6984   -0.0756 C   0  0  0  0  0
   -0.6850    2.2684   -0.8421 C   0  0  0  0  0
   -5.0249   -2.9572    1.8927 C   0  0  0  0  0
   -3.1616   -4.0138   -2.5871 C   0  0  0  0  0
    3.2433   -1.2755   -0.5360 C   0  0  0  0  0
    1.5489   -0.8151    4.1087 C   0  0  0  0  0
   -3.2028    0.6228   -0.9456 N   0  0  0  0  0
   -0.4722    1.7900    0.4588 N   0  0  0  0  0
   -5.2980   -2.0767    2.7921 O   0  0  0  0  0
   -2.6088   -3.6017   -3.6747 O   0  0  0  0  0
    3.1679   -0.9318   -1.7748 O   0  0  0  0  0
    0.7224   -0.2666    4.9298 O   0  0  0  0  0
   -3.9544    1.5731    1.0393 O   0  0  0  0  0
   -0.0222    1.9003   -1.8200 O   0  0  0  0  0
   -5.2845   -4.2089    2.0492 O   0  0  0  0  0
   -3.4422   -5.2534   -2.3803 O   0  0  0  0  0
    4.1037   -2.1328   -0.1075 O   0  0  0  0  0
    2.4282   -1.6774    4.4851 O   0  0  0  0  0
  1  2  1  0  0  0
  3 11  1  0  0  0
  4 12  1  0  0  0
  5 13  1  0  0  0
  6 15  1  0  0  0
  7 17  1  0  0  0
  8 14  1  0  0  0
  9 18  1  0  0  0
 10 16  1  0  0  0
 11 19  1  0  0  0
 12 20  1  0  0  0
 13 21  1  0  0  0
 14 22  1  0  0  0
 15 23  1  0  0  0
 16 24  1  0  0  0
 17 25  1  0  0  0
 18 26  1  0  0  0
 19 25  1  0  0  0
 20 26  1  0  0  0
 21 27  1  0  0  0
 22 28  1  0  0  0
 23 29  1  0  0  0
 24 30  1  0  0  0
  1  3  2  0  0  0
  2  4  2  0  0  0
  5 14  2  0  0  0
  6 16  2  0  0  0
  7 13  2  0  0  0
  8 17  2  0  0  0
  9 15  2  0  0  0
 10 18  2  0  0  0
 11 12  2  0  0  0
 19 31  2  0  0  0
 20 32  2  0  0  0
 21 33  2  0  0  0
 22 34  2  0  0  0
 23 35  2  0  0  0
 24 36  2  0  0  0
M  CHG  4  27  -1  28  -1  29  -1  30  -1
M  END
> <rmsd>
0.486913115

$$$$
ZINC59482348


 36 38  0  0  0  0  0  0  0  0999 V2000
   -2.3698    5.5222   -1.5866 C   0  0  0  0  0
   -3.6871    5.2488   -1.2190 C   0  0  0  0  0
   -1.3911    4.5365   -1.4590 C   0  0  0  0  0
   -4.0261    3.9896   -0.7237 C   0  0  0  0  0
    2.3702   -1.0186    1.7744 C   0  0  0  0  0
   -4.0843   -3.4482   -0.3524 C   0  0  0  0  0
    1.3692    0.2666   -0.0097 C   0  0  0  0  0
    0.5447    0.4909    2.2502 C   0  0  0  0  0
   -4.1000   -1.1667    0.4422 C   0  0  0  0  0
   -3.1927   -1.6806   -1.7372 C   0  0  0  0  0
   -1.7299    3.2773   -0.9636 C   0  0  0  0  0
   -3.0474    3.0039   -0.5960 C   0  0  0  0  0
    2.3113   -0.6650    0.4264 C   0  0  0  0  0
    1.4869   -0.4407    2.6863 C   0  0  0  0  0
   -4.3920   -2.5164    0.6389 C   0  0  0  0  0
   -3.4847   -3.0303   -1.5405 C   0  0  0  0  0
    0.4860    0.8446    0.9021 C   0  0  0  0  0
   -3.5004   -0.7487   -0.7459 C   0  0  0  0  0
   -0.6853    2.2689   -0.8421 C   0  0  0  0  0
   -3.4327    1.6985   -0.0757 C   0  0  0  0  0
    3.2433   -1.2748   -0.5358 C   0  0  0  0  0
    1.5493   -0.8138    4.1091 C   0  0  0  0  0
   -5.0249   -2.9573    1.8925 C   0  0  0  0  0
   -3.1603   -4.0137   -2.5868 C   0  0  0  0  0
   -0.4723    1.7907    0.4589 N   0  0  0  0  0
   -3.2027    0.6229   -0.9456 N   0  0  0  0  0
    3.1677   -0.9312   -1.7748 O   0  0  0  0  0
    0.7228   -0.2653    4.9301 O   0  0  0  0  0
   -5.2983   -2.0769    2.7917 O   0  0  0  0  0
   -2.6073   -3.6016   -3.6743 O   0  0  0  0  0
   -0.0226    1.9005   -1.8200 O   0  0  0  0  0
   -3.9550    1.5732    1.0390 O   0  0  0  0  0
    4.1038   -2.1319   -0.1073 O   0  0  0  0  0
    2.4288   -1.6759    4.4854 O   0  0  0  0  0
   -5.2843   -4.2091    2.0489 O   0  0  0  0  0
   -3.4407   -5.2534   -2.3801 O   0  0  0  0  0
  1  2  1  0  0  0
  3 11  1  0  0  0
  4 12  1  0  0  0
  5 13  1  0  0  0
  6 15  1  0  0  0
  7 17  1  0  0  0
  8 14  1  0  0  0
  9 18  1  0  0  0
 10 16  1  0  0  0
 11 19  1  0  0  0
 12 20  1  0  0  0
 13 21  1  0  0  0
 14 22  1  0  0  0
 15 23  1  0  0  0
 16 24  1  0  0  0
 17 25  1  0  0  0
 18 26  1  0  0  0
 19 25  1  0  0  0
 20 26  1  0  0  0
 21 27  1  0  0  0
 22 28  1  0  0  0
 23 29  1  0  0  0
 24 30  1  0  0  0
  1  3  2  0  0  0
  2  4  2  0  0  0
  5 14  2  0  0  0
  6 16  2  0  0  0
  7 13  2  0  0  0
  8 17  2  0  0  0
  9 15  2  0  0  0
 10 18  2  0  0  0
 11 12  2  0  0  0
 19 31  2  0  0  0
 20 32  2  0  0  0
 21 33  2  0  0  0
 22 34  2  0  0  0
 23 35  2  0  0  0
 24 36  2  0  0  0
M  CHG  4  27  -1  28  -1  29  -1  30  -1
M  END
> <rmsd>
0.486694694

$$$$
ZINC69559150


 30 32  0  0  0  0  0  0  0  0999 V2000
    0.7144   -3.7589   -1.8920 C   0  0  0  0  0
    0.0627   -3.5696   -3.1105 C   0  0  0  0  0
    1.1189    2.8185   -2.0049 C   0  0  0  0  0
    1.8097   -2.9632   -1.5558 C   0  0  0  0  0
    0.0127    2.7272   -1.1604 C   0  0  0  0  0
   -2.7654   -2.2059   -1.8346 C   0  0  0  0  0
   -2.7378   -0.8327   -1.5912 C   0  0  0  0  0
    0.5063   -2.5847   -3.9931 C   0  0  0  0  0
    0.9864    0.7901   -0.0943 C   0  0  0  0  0
   -2.8899   -2.6246    0.5416 C   0  0  0  0  0
    2.1590    1.8956   -1.8943 C   0  0  0  0  0
    2.2534   -1.9784   -2.4384 C   0  0  0  0  0
   -0.0537    1.7130   -0.2050 C   0  0  0  0  0
   -2.8415   -3.1019   -0.7682 C   0  0  0  0  0
   -2.7861   -0.3554   -0.2814 C   0  0  0  0  0
    2.0927    0.8814   -0.9389 C   0  0  0  0  0
    1.6016   -1.7892   -3.6570 C   0  0  0  0  0
   -2.8621   -1.2514    0.7850 C   0  0  0  0  0
    3.3292    2.0215   -2.8141 C   0  0  0  0  0
    3.3205   -1.2251   -2.0774 N   0  0  0  0  0
   -1.1855    1.6209    0.6601 N   0  0  0  0  0
    4.6076    0.5186   -0.6788 O   0  0  0  0  0
    3.0686   -1.0028    0.4804 O   0  0  0  0  0
   -3.7554    1.7045    0.9607 O   0  0  0  0  0
   -2.8041    2.0287   -1.3392 O   0  0  0  0  0
   -2.8673   -4.4206   -1.0023 F   0  0  0  0  0
    3.3803   -0.2921   -0.7724 S   0  0  0  0  0
   -2.7459    1.3967   -0.0350 S   0  0  0  0  0
    2.1024   -0.5845   -4.7963 Cl  0  0  0  0  0
   -2.9227   -0.7123    2.4244 Cl  0  0  0  0  0
  1  2  1  0  0  0
  3 11  1  0  0  0
  4 12  1  0  0  0
  5 13  1  0  0  0
  6 14  1  0  0  0
  7 15  1  0  0  0
  8 17  1  0  0  0
  9 16  1  0  0  0
 10 18  1  0  0  0
 12 20  1  0  0  0
 13 21  1  0  0  0
 14 26  1  0  0  0
 17 29  1  0  0  0
 18 30  1  0  0  0
 19 11  1  0  0  0
 27 16  1  0  0  0
 27 20  1  0  0  0
 28 15  1  0  0  0
 28 21  1  0  0  0
  1  4  2  0  0  0
  2  8  2  0  0  0
  3  5  2  0  0  0
  6  7  2  0  0  0
  9 13  2  0  0  0
 10 14  2  0  0  0
 11 16  2  0  0  0
 12 17  2  0  0  0
 15 18  2  0  0  0
 27 22  2  0  0  0
 27 23  2  0  0  0
 28 24  2  0  0  0
 28 25  2  0  0  0
M  CHG  1  20  -1
M  END
> <rmsd>
0.685668111

$$$$
ZINC08818428


 35 38  0  0  0  0  0  0  0  0999 V2000
   -2.3863   -5.4512   -4.0295 C   0  0  0  0  0
   -4.3426   -2.2089    0.9603 C   0  0  0  0  0
   -1.2976   -4.6088   -4.2546 C   0  0  0  0  0
   -3.6400   -4.9098   -3.7455 C   0  0  0  0  0
   -3.0553   -2.3842    0.4529 C   0  0  0  0  0
   -5.2875   -1.4869    0.2311 C   0  0  0  0  0
    2.5888    0.4871    1.5446 C   0  0  0  0  0
   -1.4626   -3.2249   -4.1957 C   0  0  0  0  0
   -3.8051   -3.5259   -3.6864 C   0  0  0  0  0
   -2.7126   -1.8373   -0.7837 C   0  0  0  0  0
   -4.9448   -0.9400   -1.0055 C   0  0  0  0  0
    1.2772    0.9615    1.5265 C   0  0  0  0  0
    3.1791    0.0235    0.3690 C   0  0  0  0  0
    1.1462    0.5085   -0.8431 C   0  0  0  0  0
   -2.7164   -2.6835   -3.9116 C   0  0  0  0  0
   -3.6573   -1.1152   -1.5129 C   0  0  0  0  0
    0.5559    0.9721    0.3325 C   0  0  0  0  0
    2.4579    0.0342   -0.8249 C   0  0  0  0  0
   -2.8874   -1.2505   -3.8499 C   0  0  0  0  0
   -3.3336    0.7431   -3.1180 C   0  0  0  0  0
   -2.6669    1.9257   -0.7593 C   0  0  0  0  0
   -3.3863    2.4252    0.4440 C   0  0  0  0  0
   -3.3138    5.8232    1.7503 C   0  0  0  0  0
   -3.6980    4.3591    1.7320 C   0  0  0  0  0
   -2.6585   -0.4088   -4.8325 N   0  0  0  0  0
   -2.9424    0.8596   -4.3669 N   0  0  0  0  0
   -1.4642    1.4722   -0.8346 N   0  0  0  0  0
   -3.3141   -0.5682   -2.7511 N   0  0  0  0  0
   -0.7640    1.4494    0.3143 N   0  0  0  0  0
    3.0595   -0.4399   -2.0208 N   0  0  0  0  0
    4.2399   -0.8634   -1.9809 O   0  0  0  0  0
   -4.0439    1.6850    1.1498 O   0  0  0  0  0
    2.3940   -0.4224   -3.0844 O   0  0  0  0  0
   -3.1189    3.7398    0.5802 O   0  0  0  0  0
   -3.8203    2.0782   -2.0413 S   0  0  0  0  0
  1  3  1  0  0  0
  2  5  1  0  0  0
  4  9  1  0  0  0
  6 11  1  0  0  0
  7 13  1  0  0  0
  8 15  1  0  0  0
 10 16  1  0  0  0
 12 17  1  0  0  0
 14 18  1  0  0  0
 15 19  1  0  0  0
 16 28  1  0  0  0
 17 29  1  0  0  0
 18 30  1  0  0  0
 19 28  1  0  0  0
 20 28  1  0  0  0
 20 35  1  0  0  0
 21 22  1  0  0  0
 21 35  1  0  0  0
 22 34  1  0  0  0
 23 24  1  0  0  0
 24 34  1  0  0  0
 25 26  1  0  0  0
 29 27  1  0  0  0
 30 31  1  0  0  0
  1  4  2  0  0  0
  2  6  2  0  0  0
  3  8  2  0  0  0
  5 10  2  0  0  0
  7 12  2  0  0  0
  9 15  2  0  0  0
 11 16  2  0  0  0
 13 18  2  0  0  0
 14 17  2  0  0  0
 19 25  2  0  0  0
 20 26  2  0  0  0
 21 27  2  0  0  0
 22 32  2  0  0  0
 30 33  2  0  0  0
M  CHG  2  30   1  31  -1
M  END
> <rmsd>
0.362993807

$$$$
ZINC59122196


 35 38  0  0  0  0  0  0  0  0999 V2000
   -6.4342   -4.8715   -3.1253 C   0  0  0  0  0
   -4.3824   -2.1974    0.9788 C   0  0  0  0  0
   -6.4653   -3.6797   -3.8491 C   0  0  0  0  0
   -5.2218   -5.3612   -2.6395 C   0  0  0  0  0
   -3.0977   -2.3848    0.4690 C   0  0  0  0  0
   -5.3186   -1.4581    0.2559 C   0  0  0  0  0
    2.6283    0.5149    1.5346 C   0  0  0  0  0
   -5.2839   -2.9773   -4.0872 C   0  0  0  0  0
   -4.0404   -4.6589   -2.8775 C   0  0  0  0  0
   -2.7491   -1.8329   -0.7638 C   0  0  0  0  0
   -4.9701   -0.9062   -0.9769 C   0  0  0  0  0
    1.3166    0.9894    1.5284 C   0  0  0  0  0
    3.2042    0.0413    0.3557 C   0  0  0  0  0
    1.1567    0.5165   -0.8354 C   0  0  0  0  0
   -4.0714   -3.4669   -3.6013 C   0  0  0  0  0
   -3.6854   -1.0936   -1.4867 C   0  0  0  0  0
    0.5807    0.9902    0.3435 C   0  0  0  0  0
    2.4683    0.0420   -0.8292 C   0  0  0  0  0
   -2.9200   -1.2284   -3.8196 C   0  0  0  0  0
   -3.3369    0.7700   -3.0836 C   0  0  0  0  0
   -3.3662    2.4455    0.4852 C   0  0  0  0  0
   -2.6538    1.9382   -0.7212 C   0  0  0  0  0
   -3.2413    3.9125    0.7788 C   0  0  0  0  0
   -2.7746   -2.6961   -3.8629 C   0  0  0  0  0
   -2.6788   -0.3882   -4.8005 N   0  0  0  0  0
   -2.9441    0.8832   -4.3323 N   0  0  0  0  0
   -1.4516    1.4847   -0.8038 N   0  0  0  0  0
   -3.3366   -0.5423   -2.7194 N   0  0  0  0  0
   -0.7393    1.4677    0.3372 N   0  0  0  0  0
    3.0552   -0.4423   -2.0284 N   0  0  0  0  0
    4.2359   -0.8659   -1.9993 O   0  0  0  0  0
   -4.0507    1.6604    1.1252 O   0  0  0  0  0
    2.3768   -0.4337   -3.0838 O   0  0  0  0  0
   -2.2020   -3.1659   -5.1048 O   0  0  0  0  0
   -3.8045    2.1092   -2.0035 S   0  0  0  0  0
  1  3  1  0  0  0
  2  5  1  0  0  0
  4  9  1  0  0  0
  6 11  1  0  0  0
  7 13  1  0  0  0
  8 15  1  0  0  0
 10 16  1  0  0  0
 12 17  1  0  0  0
 14 18  1  0  0  0
 16 28  1  0  0  0
 17 29  1  0  0  0
 18 30  1  0  0  0
 19 28  1  0  0  0
 20 28  1  0  0  0
 20 35  1  0  0  0
 21 22  1  0  0  0
 22 35  1  0  0  0
 23 21  1  0  0  0
 24 15  1  0  0  0
 24 19  1  0  0  0
 24 34  1  0  0  0
 25 26  1  0  0  0
 29 27  1  0  0  0
 30 31  1  0  0  0
  1  4  2  0  0  0
  2  6  2  0  0  0
  3  8  2  0  0  0
  5 10  2  0  0  0
  7 12  2  0  0  0
  9 15  2  0  0  0
 11 16  2  0  0  0
 13 18  2  0  0  0
 14 17  2  0  0  0
 19 25  2  0  0  0
 20 26  2  0  0  0
 21 32  2  0  0  0
 22 27  2  0  0  0
 30 33  2  0  0  0
M  CHG  2  30   1  31  -1
M  END
> <rmsd>
0.367738813

$$$$
ZINC59122196


 35 38  0  0  0  0  0  0  0  0999 V2000
   -5.2082   -4.6393   -6.8582 C   0  0  0  0  0
   -4.3825   -2.1974    0.9786 C   0  0  0  0  0
   -5.7585   -4.3080   -5.6201 C   0  0  0  0  0
   -3.8722   -4.3436   -7.1294 C   0  0  0  0  0
   -3.0977   -2.3848    0.4688 C   0  0  0  0  0
   -5.3187   -1.4581    0.2558 C   0  0  0  0  0
    2.6282    0.5149    1.5345 C   0  0  0  0  0
   -4.9729   -3.6807   -4.6532 C   0  0  0  0  0
   -3.0867   -3.7163   -6.1625 C   0  0  0  0  0
   -2.7492   -1.8329   -0.7639 C   0  0  0  0  0
   -4.9701   -0.9062   -0.9770 C   0  0  0  0  0
    1.3165    0.9894    1.5283 C   0  0  0  0  0
    3.2041    0.0413    0.3556 C   0  0  0  0  0
    1.1566    0.5165   -0.8355 C   0  0  0  0  0
   -3.6369   -3.3849   -4.9243 C   0  0  0  0  0
   -3.6855   -1.0936   -1.4868 C   0  0  0  0  0
    0.5806    0.9902    0.3434 C   0  0  0  0  0
    2.4682    0.0420   -0.8293 C   0  0  0  0  0
   -2.9201   -1.2283   -3.8197 C   0  0  0  0  0
   -3.3370    0.7700   -3.0837 C   0  0  0  0  0
   -3.3663    2.4456    0.4851 C   0  0  0  0  0
   -2.6539    1.9382   -0.7214 C   0  0  0  0  0
   -3.2413    3.9125    0.7787 C   0  0  0  0  0
   -2.7747   -2.6961   -3.8630 C   0  0  0  0  0
   -2.6789   -0.3882   -4.8006 N   0  0  0  0  0
   -2.9442    0.8833   -4.3324 N   0  0  0  0  0
   -1.4517    1.4847   -0.8039 N   0  0  0  0  0
   -3.3367   -0.5423   -2.7195 N   0  0  0  0  0
   -0.7394    1.4677    0.3371 N   0  0  0  0  0
    3.0551   -0.4423   -2.0285 N   0  0  0  0  0
    4.2358   -0.8659   -1.9994 O   0  0  0  0  0
   -4.0508    1.6604    1.1251 O   0  0  0  0  0
    2.3767   -0.4337   -3.0840 O   0  0  0  0  0
   -1.4031   -3.1183   -4.0389 O   0  0  0  0  0
   -3.8046    2.1093   -2.0036 S   0  0  0  0  0
  1  3  1  0  0  0
  2  5  1  0  0  0
  4  9  1  0  0  0
  6 11  1  0  0  0
  7 13  1  0  0  0
  8 15  1  0  0  0
 10 16  1  0  0  0
 12 17  1  0  0  0
 14 18  1  0  0  0
 16 28  1  0  0  0
 17 29  1  0  0  0
 18 30  1  0  0  0
 19 28  1  0  0  0
 20 28  1  0  0  0
 20 35  1  0  0  0
 21 22  1  0  0  0
 22 35  1  0  0  0
 23 21  1  0  0  0
 24 15  1  0  0  0
 24 19  1  0  0  0
 24 34  1  0  0  0
 25 26  1  0  0  0
 29 27  1  0  0  0
 30 31  1  0  0  0
  1  4  2  0  0  0
  2  6  2  0  0  0
  3  8  2  0  0  0
  5 10  2  0  0  0
  7 12  2  0  0  0
  9 15  2  0  0  0
 11 16  2  0  0  0
 13 18  2  0  0  0
 14 17  2  0  0  0
 19 25  2  0  0  0
 20 26  2  0  0  0
 21 32  2  0  0  0
 22 27  2  0  0  0
 30 33  2  0  0  0
M  CHG  2  30   1  31  -1
M  END
> <rmsd>
0.367738843

$$$$
ZINC43735631


 34 37  0  0  0  0  0  0  0  0999 V2000
   -4.7885   -3.0005   -0.4872 C   0  0  0  0  0
   -5.2976   -1.7808   -0.9330 C   0  0  0  0  0
   -3.6932   -3.0254    0.3760 C   0  0  0  0  0
   -4.7113   -0.5859   -0.5158 C   0  0  0  0  0
   -3.1067   -1.8305    0.7933 C   0  0  0  0  0
   -3.6158   -0.6108    0.3475 C   0  0  0  0  0
   -3.2433    3.7966    3.9352 C   0  0  0  0  0
   -3.7311    2.6529    3.0730 C   0  0  0  0  0
    1.1544    0.7630   -1.1042 C   0  0  0  0  0
    3.9452   -0.3642   -1.8099 C   0  0  0  0  0
   -1.8678    1.1276   -0.1426 C   0  0  0  0  0
   -1.6552    4.3217    2.0994 C   0  0  0  0  0
   -2.7346    3.8634    1.1418 C   0  0  0  0  0
    0.5376    1.7831   -0.1312 C   0  0  0  0  0
    3.6300    0.5434   -0.6387 C   0  0  0  0  0
    1.8217    1.6020    0.6927 C   0  0  0  0  0
    4.0866    2.0110   -0.7510 C   0  0  0  0  0
    3.8162    2.6500   -2.1200 C   0  0  0  0  0
    5.5679    2.1631   -0.3916 C   0  0  0  0  0
   -2.3641    6.9414    4.0278 C   0  0  0  0  0
   -1.6316    5.6543    4.2000 C   0  0  0  0  0
   -2.9805    0.6836    0.7993 C   0  0  0  0  0
   -2.2358    4.5968    3.4065 N   0  0  0  0  0
   -3.4373    2.7406    1.7271 N   0  0  0  0  0
    2.2250    0.5786   -0.2764 N   0  0  0  0  0
   -0.6783    1.3144    0.5301 N   0  0  0  0  0
   -3.9393    1.7577    0.8852 N   0  0  0  0  0
    5.0015   -0.0829   -2.4410 O   0  0  0  0  0
   -3.7727    3.9183    5.0341 O   0  0  0  0  0
   -4.3455    1.7547    3.6366 O   0  0  0  0  0
    0.8877    0.3568   -2.2126 O   0  0  0  0  0
    3.1068   -1.2887   -2.0042 O   0  0  0  0  0
   -2.0493    1.3251   -1.3425 O   0  0  0  0  0
    3.0730    2.9357    0.5128 S   0  0  0  0  0
  1  2  1  0  0  0
  3  5  1  0  0  0
  4  6  1  0  0  0
  7  8  1  0  0  0
  7 23  1  0  0  0
  8 24  1  0  0  0
  9 25  1  0  0  0
 10 28  1  0  0  0
 11 26  1  0  0  0
 12 13  1  0  0  0
 12 23  1  0  0  0
 13 24  1  0  0  0
 14  9  1  0  0  0
 14 16  1  0  0  0
 14 26  1  0  0  0
 15 10  1  0  0  0
 15 17  1  0  0  0
 15 25  1  0  0  0
 16 25  1  0  0  0
 16 34  1  0  0  0
 17 18  1  0  0  0
 17 19  1  0  0  0
 17 34  1  0  0  0
 20 21  1  0  0  0
 21 23  1  0  0  0
 22  6  1  0  0  0
 22 11  1  0  0  0
 22 27  1  0  0  0
 24 27  1  0  0  0
  1  3  2  0  0  0
  2  4  2  0  0  0
  5  6  2  0  0  0
  7 29  2  0  0  0
  8 30  2  0  0  0
  9 31  2  0  0  0
 10 32  2  0  0  0
 11 33  2  0  0  0
M  CHG  1  28  -1
M  END
> <rmsd>
0.437678725

$$$$
ZINC43735631


 34 37  0  0  0  0  0  0  0  0999 V2000
   -4.7884   -3.0002   -0.4863 C   0  0  0  0  0
   -5.2975   -1.7805   -0.9322 C   0  0  0  0  0
   -3.6931   -3.0251    0.3768 C   0  0  0  0  0
   -4.7112   -0.5856   -0.5149 C   0  0  0  0  0
   -3.1066   -1.8302    0.7942 C   0  0  0  0  0
   -3.6157   -0.6105    0.3483 C   0  0  0  0  0
   -2.0711    4.7397    2.1366 C   0  0  0  0  0
   -2.6748    3.7462    1.1681 C   0  0  0  0  0
    1.1545    0.7633   -1.1034 C   0  0  0  0  0
    3.9453   -0.3639   -1.8090 C   0  0  0  0  0
   -1.8677    1.1279   -0.1417 C   0  0  0  0  0
   -3.7803    3.9775    3.7694 C   0  0  0  0  0
   -3.6379    2.6010    3.1553 C   0  0  0  0  0
    0.5377    1.7834   -0.1304 C   0  0  0  0  0
    3.6301    0.5437   -0.6378 C   0  0  0  0  0
    1.8218    1.6023    0.6936 C   0  0  0  0  0
    4.0867    2.0113   -0.7502 C   0  0  0  0  0
    3.8163    2.6503   -2.1191 C   0  0  0  0  0
    5.5680    2.1634   -0.3908 C   0  0  0  0  0
   -2.9900    7.0526    4.2527 C   0  0  0  0  0
   -2.1937    5.7975    4.3692 C   0  0  0  0  0
   -2.9804    0.6839    0.8002 C   0  0  0  0  0
   -2.6372    4.8037    3.4055 N   0  0  0  0  0
   -3.4372    2.7410    1.7280 N   0  0  0  0  0
    2.2251    0.5789   -0.2755 N   0  0  0  0  0
   -0.6782    1.3147    0.5310 N   0  0  0  0  0
   -3.9392    1.7580    0.8861 N   0  0  0  0  0
    5.0016   -0.0826   -2.4401 O   0  0  0  0  0
   -1.1359    5.4128    1.7186 O   0  0  0  0  0
   -2.4338    3.9133   -0.0217 O   0  0  0  0  0
    0.8878    0.3571   -2.2117 O   0  0  0  0  0
    3.1069   -1.2884   -2.0033 O   0  0  0  0  0
   -2.0492    1.3254   -1.3416 O   0  0  0  0  0
    3.0731    2.9360    0.5137 S   0  0  0  0  0
  1  2  1  0  0  0
  3  5  1  0  0  0
  4  6  1  0  0  0
  7  8  1  0  0  0
  7 23  1  0  0  0
  8 24  1  0  0  0
  9 25  1  0  0  0
 10 28  1  0  0  0
 11 26  1  0  0  0
 12 13  1  0  0  0
 12 23  1  0  0  0
 13 24  1  0  0  0
 14  9  1  0  0  0
 14 16  1  0  0  0
 14 26  1  0  0  0
 15 10  1  0  0  0
 15 17  1  0  0  0
 15 25  1  0  0  0
 16 25  1  0  0  0
 16 34  1  0  0  0
 17 18  1  0  0  0
 17 19  1  0  0  0
 17 34  1  0  0  0
 20 21  1  0  0  0
 21 23  1  0  0  0
 22  6  1  0  0  0
 22 11  1  0  0  0
 22 27  1  0  0  0
 24 27  1  0  0  0
  1  3  2  0  0  0
  2  4  2  0  0  0
  5  6  2  0  0  0
  7 29  2  0  0  0
  8 30  2  0  0  0
  9 31  2  0  0  0
 10 32  2  0  0  0
 11 33  2  0  0  0
M  CHG  1  28  -1
M  END
> <rmsd>
0.437678605

$$$$
ZINC08739989


 34 37  0  0  0  0  0  0  0  0999 V2000
   -4.5075   -2.8790   -0.5861 C   0  0  0  0  0
   -5.1433   -1.6896   -0.9417 C   0  0  0  0  0
   -3.3893   -2.8500    0.2473 C   0  0  0  0  0
   -4.6610   -0.4711   -0.4642 C   0  0  0  0  0
   -2.9069   -1.6314    0.7250 C   0  0  0  0  0
   -3.5427   -0.4420    0.3692 C   0  0  0  0  0
   -3.4836    3.7558    4.2178 C   0  0  0  0  0
   -3.8860    2.6244    3.2971 C   0  0  0  0  0
    0.6561    1.0740   -1.8034 C   0  0  0  0  0
    3.8308   -0.5969   -1.9412 C   0  0  0  0  0
   -1.9833    1.4838   -0.0521 C   0  0  0  0  0
   -2.0083    4.5420    2.3812 C   0  0  0  0  0
   -3.0674    4.0403    1.4228 C   0  0  0  0  0
    0.4832    1.6355   -0.3787 C   0  0  0  0  0
    2.3502   -0.7745   -1.7915 C   0  0  0  0  0
    1.8329    0.9653   -0.0721 C   0  0  0  0  0
    1.9038   -1.6853   -0.6257 C   0  0  0  0  0
    2.8778   -2.8292   -0.3247 C   0  0  0  0  0
    0.5113   -2.2771   -0.9020 C   0  0  0  0  0
   -0.8043    5.3082    5.2582 C   0  0  0  0  0
   -2.0486    5.7411    4.5605 C   0  0  0  0  0
   -3.0200    0.8781    0.8864 C   0  0  0  0  0
   -2.5731    4.6801    3.7167 N   0  0  0  0  0
   -3.6424    2.8214    1.9528 N   0  0  0  0  0
    1.8729    0.5523   -1.4757 N   0  0  0  0  0
   -0.6992    1.1484    0.3252 N   0  0  0  0  0
   -4.0736    1.8472    1.0629 N   0  0  0  0  0
    4.4415   -0.2542   -0.8911 O   0  0  0  0  0
   -3.9891    3.7590    5.3345 O   0  0  0  0  0
   -4.3951    1.6387    3.8176 O   0  0  0  0  0
   -0.0337    0.9918   -2.7942 O   0  0  0  0  0
    4.2753   -0.8140   -3.1033 O   0  0  0  0  0
   -2.2836    2.2108   -0.9970 O   0  0  0  0  0
    1.7561   -0.5993    0.8788 S   0  0  0  0  0
  1  2  1  0  0  0
  3  5  1  0  0  0
  4  6  1  0  0  0
  7  8  1  0  0  0
  7 23  1  0  0  0
  8 24  1  0  0  0
  9 25  1  0  0  0
 10 28  1  0  0  0
 11 26  1  0  0  0
 12 13  1  0  0  0
 12 23  1  0  0  0
 13 24  1  0  0  0
 14  9  1  0  0  0
 14 16  1  0  0  0
 14 26  1  0  0  0
 15 10  1  0  0  0
 15 17  1  0  0  0
 15 25  1  0  0  0
 16 25  1  0  0  0
 16 34  1  0  0  0
 17 18  1  0  0  0
 17 19  1  0  0  0
 17 34  1  0  0  0
 20 21  1  0  0  0
 21 23  1  0  0  0
 22  6  1  0  0  0
 22 11  1  0  0  0
 22 27  1  0  0  0
 24 27  1  0  0  0
  1  3  2  0  0  0
  2  4  2  0  0  0
  5  6  2  0  0  0
  7 29  2  0  0  0
  8 30  2  0  0  0
  9 31  2  0  0  0
 10 32  2  0  0  0
 11 33  2  0  0  0
M  CHG  1  28  -1
M  END
> <rmsd>
0.41291818

$$$$
ZINC08739989


 34 37  0  0  0  0  0  0  0  0999 V2000
   -4.5075   -2.8789   -0.5859 C   0  0  0  0  0
   -4.4494   -2.6417    0.7875 C   0  0  0  0  0
   -4.0827   -1.8977   -1.4817 C   0  0  0  0  0
   -3.9668   -1.4232    1.2649 C   0  0  0  0  0
   -3.6001   -0.6792   -1.0042 C   0  0  0  0  0
   -3.5421   -0.4420    0.3690 C   0  0  0  0  0
   -3.2979    3.6945    4.2229 C   0  0  0  0  0
   -3.8765    2.6424    3.3026 C   0  0  0  0  0
    0.6568    1.0741   -1.8034 C   0  0  0  0  0
    3.8315   -0.5966   -1.9412 C   0  0  0  0  0
   -1.9827    1.4839   -0.0521 C   0  0  0  0  0
   -3.1673    5.1690    2.2284 C   0  0  0  0  0
   -2.8652    3.9218    1.4248 C   0  0  0  0  0
    0.4838    1.6356   -0.3788 C   0  0  0  0  0
    2.3509   -0.7743   -1.7915 C   0  0  0  0  0
    1.8335    0.9654   -0.0722 C   0  0  0  0  0
    1.9045   -1.6852   -0.6258 C   0  0  0  0  0
    2.8785   -2.8291   -0.3248 C   0  0  0  0  0
    0.5120   -2.2770   -0.9021 C   0  0  0  0  0
   -3.6189    6.8710    4.9144 C   0  0  0  0  0
   -2.4825    6.0173    4.4646 C   0  0  0  0  0
   -3.0194    0.8781    0.8863 C   0  0  0  0  0
   -2.9496    4.9111    3.6455 N   0  0  0  0  0
   -3.6417    2.8217    1.9530 N   0  0  0  0  0
    1.8735    0.5524   -1.4757 N   0  0  0  0  0
   -0.6986    1.1485    0.3251 N   0  0  0  0  0
   -4.0730    1.8472    1.0627 N   0  0  0  0  0
    4.4422   -0.2541   -0.8911 O   0  0  0  0  0
   -3.1905    3.3888    5.4051 O   0  0  0  0  0
   -4.4952    1.7233    3.8259 O   0  0  0  0  0
   -0.0331    0.9919   -2.7942 O   0  0  0  0  0
    4.2761   -0.8138   -3.1033 O   0  0  0  0  0
   -2.2830    2.2108   -0.9971 O   0  0  0  0  0
    1.7567   -0.5992    0.8787 S   0  0  0  0  0
  1  2  1  0  0  0
  3  5  1  0  0  0
  4  6  1  0  0  0
  7  8  1  0  0  0
  7 23  1  0  0  0
  8 24  1  0  0  0
  9 25  1  0  0  0
 10 28  1  0  0  0
 11 26  1  0  0  0
 12 13  1  0  0  0
 12 23  1  0  0  0
 13 24  1  0  0  0
 14  9  1  0  0  0
 14 16  1  0  0  0
 14 26  1  0  0  0
 15 10  1  0  0  0
 15 17  1  0  0  0
 15 25  1  0  0  0
 16 25  1  0  0  0
 16 34  1  0  0  0
 17 18  1  0  0  0
 17 19  1  0  0  0
 17 34  1  0  0  0
 20 21  1  0  0  0
 21 23  1  0  0  0
 22  6  1  0  0  0
 22 11  1  0  0  0
 22 27  1  0  0  0
 24 27  1  0  0  0
  1  3  2  0  0  0
  2  4  2  0  0  0
  5  6  2  0  0  0
  7 29  2  0  0  0
  8 30  2  0  0  0
  9 31  2  0  0  0
 10 32  2  0  0  0
 11 33  2  0  0  0
M  CHG  1  28  -1
M  END
> <rmsd>
0.413211703

$$$$
ZINC43735631


 34 37  0  0  0  0  0  0  0  0999 V2000
   -4.1226   -3.0538   -0.3486 C   0  0  0  0  0
   -4.6738   -1.9469   -0.9941 C   0  0  0  0  0
   -3.2125   -2.8723    0.6927 C   0  0  0  0  0
   -4.3147   -0.6585   -0.5983 C   0  0  0  0  0
   -2.8534   -1.5838    1.0885 C   0  0  0  0  0
   -3.4046   -0.4769    0.4430 C   0  0  0  0  0
   -4.0304    4.1457    3.6463 C   0  0  0  0  0
   -4.3884    2.9591    2.7788 C   0  0  0  0  0
    1.1558    0.8622   -0.9521 C   0  0  0  0  0
    3.7485   -0.4587   -1.9958 C   0  0  0  0  0
   -1.8035    1.4305    0.1022 C   0  0  0  0  0
   -3.4794    5.3428    1.5410 C   0  0  0  0  0
   -3.0017    4.0108    1.0021 C   0  0  0  0  0
    0.6744    1.6273    0.2933 C   0  0  0  0  0
    3.5370    0.0886   -0.5991 C   0  0  0  0  0
    1.8725    0.9854    1.0097 C   0  0  0  0  0
    4.2360    1.4191   -0.2580 C   0  0  0  0  0
    4.1370    2.4815   -1.3613 C   0  0  0  0  0
    5.7044    1.1971    0.1172 C   0  0  0  0  0
   -4.5148    7.3725    3.8045 C   0  0  0  0  0
   -3.3022    6.5082    3.7319 C   0  0  0  0  0
   -3.0154    0.9188    0.8716 C   0  0  0  0  0
   -3.5731    5.2857    2.9935 N   0  0  0  0  0
   -3.8673    2.9640    1.4993 N   0  0  0  0  0
    2.1427    0.2528   -0.2310 N   0  0  0  0  0
   -0.6307    1.1958    0.7890 N   0  0  0  0  0
   -4.0884    1.8638    0.6816 N   0  0  0  0  0
    4.8640   -0.1844   -2.5190 O   0  0  0  0  0
   -4.1805    4.0057    4.8548 O   0  0  0  0  0
   -5.1001    2.0967    3.2799 O   0  0  0  0  0
    0.8747    0.8656   -2.1293 O   0  0  0  0  0
    2.7776   -1.1212   -2.4578 O   0  0  0  0  0
   -1.8960    2.0125   -0.9768 O   0  0  0  0  0
    3.3352    2.0744    1.2382 S   0  0  0  0  0
  1  2  1  0  0  0
  3  5  1  0  0  0
  4  6  1  0  0  0
  7  8  1  0  0  0
  7 23  1  0  0  0
  8 24  1  0  0  0
  9 25  1  0  0  0
 10 28  1  0  0  0
 11 26  1  0  0  0
 12 13  1  0  0  0
 12 23  1  0  0  0
 13 24  1  0  0  0
 14  9  1  0  0  0
 14 16  1  0  0  0
 14 26  1  0  0  0
 15 10  1  0  0  0
 15 17  1  0  0  0
 15 25  1  0  0  0
 16 25  1  0  0  0
 16 34  1  0  0  0
 17 18  1  0  0  0
 17 19  1  0  0  0
 17 34  1  0  0  0
 20 21  1  0  0  0
 21 23  1  0  0  0
 22  6  1  0  0  0
 22 11  1  0  0  0
 22 27  1  0  0  0
 24 27  1  0  0  0
  1  3  2  0  0  0
  2  4  2  0  0  0
  5  6  2  0  0  0
  7 29  2  0  0  0
  8 30  2  0  0  0
  9 31  2  0  0  0
 10 32  2  0  0  0
 11 33  2  0  0  0
M  CHG  1  28  -1
M  END
> <rmsd>
0.41376245

$$$$
ZINC08739989


 34 37  0  0  0  0  0  0  0  0999 V2000
   -4.9753   -2.8987   -0.5708 C   0  0  0  0  0
   -5.5099   -1.6463   -0.8724 C   0  0  0  0  0
   -3.7984   -2.9943    0.1719 C   0  0  0  0  0
   -4.8675   -0.4893   -0.4314 C   0  0  0  0  0
   -3.1561   -1.8372    0.6129 C   0  0  0  0  0
   -3.6907   -0.5847    0.3111 C   0  0  0  0  0
   -2.8948    3.5438    4.1527 C   0  0  0  0  0
   -3.4834    2.4699    3.2641 C   0  0  0  0  0
    0.9173    0.8812   -1.5414 C   0  0  0  0  0
    3.9549   -0.5549   -1.7070 C   0  0  0  0  0
   -1.9772    1.1737   -0.2274 C   0  0  0  0  0
   -1.4940    4.1925    2.2073 C   0  0  0  0  0
   -2.6711    3.8130    1.3342 C   0  0  0  0  0
    0.4257    1.8111   -0.4141 C   0  0  0  0  0
    2.8403   -0.4815   -0.7126 C   0  0  0  0  0
    1.8218    1.6269    0.1964 C   0  0  0  0  0
    3.2748   -0.4993    0.7686 C   0  0  0  0  0
    4.6254    0.1756    1.0444 C   0  0  0  0  0
    3.2746   -1.9213    1.3328 C   0  0  0  0  0
   -1.9669    6.6674    4.3832 C   0  0  0  0  0
   -1.2389    5.3664    4.3858 C   0  0  0  0  0
   -2.9948    0.6687    0.7886 C   0  0  0  0  0
   -1.9351    4.3742    3.5835 N   0  0  0  0  0
   -3.3265    2.6547    1.9052 N   0  0  0  0  0
    2.1400    0.7652   -0.9459 N   0  0  0  0  0
   -0.7226    1.3031    0.3317 N   0  0  0  0  0
   -3.9249    1.7397    1.0498 N   0  0  0  0  0
    4.8503    0.3255   -1.5791 O   0  0  0  0  0
   -3.3083    3.5876    5.3059 O   0  0  0  0  0
   -4.0499    1.5367    3.8208 O   0  0  0  0  0
    0.4154    0.3385   -2.4996 O   0  0  0  0  0
    3.8538   -1.4919   -2.5478 O   0  0  0  0  0
   -2.2768    1.4602   -1.3848 O   0  0  0  0  0
    1.9526    0.4929    1.6269 S   0  0  0  0  0
  1  2  1  0  0  0
  3  5  1  0  0  0
  4  6  1  0  0  0
  7  8  1  0  0  0
  7 23  1  0  0  0
  8 24  1  0  0  0
  9 25  1  0  0  0
 10 28  1  0  0  0
 11 26  1  0  0  0
 12 13  1  0  0  0
 12 23  1  0  0  0
 13 24  1  0  0  0
 14  9  1  0  0  0
 14 16  1  0  0  0
 14 26  1  0  0  0
 15 10  1  0  0  0
 15 17  1  0  0  0
 15 25  1  0  0  0
 16 25  1  0  0  0
 16 34  1  0  0  0
 17 18  1  0  0  0
 17 19  1  0  0  0
 17 34  1  0  0  0
 20 21  1  0  0  0
 21 23  1  0  0  0
 22  6  1  0  0  0
 22 11  1  0  0  0
 22 27  1  0  0  0
 24 27  1  0  0  0
  1  3  2  0  0  0
  2  4  2  0  0  0
  5  6  2  0  0  0
  7 29  2  0  0  0
  8 30  2  0  0  0
  9 31  2  0  0  0
 10 32  2  0  0  0
 11 33  2  0  0  0
M  CHG  1  28  -1
M  END
> <rmsd>
0.519967616

$$$$
ZINC12856856


 30 32  0  0  0  0  0  0  0  0999 V2000
   -2.3529   -2.7949   -0.0223 C   0  0  0  0  0
   -2.9027   -1.1148   -1.6691 C   0  0  0  0  0
   -6.0343    3.1018    1.1889 C   0  0  0  0  0
   -3.6553   -2.7351    0.4736 C   0  0  0  0  0
   -4.2051   -1.0550   -1.1732 C   0  0  0  0  0
   -7.3916    3.3149    1.4300 C   0  0  0  0  0
   -7.1519    5.6187    0.7430 C   0  0  0  0  0
   -1.9766   -1.9848   -1.0936 C   0  0  0  0  0
   -5.7946    5.4056    0.5019 C   0  0  0  0  0
   -5.2358    4.1472    0.7248 C   0  0  0  0  0
   -4.5813   -1.8652   -0.1019 C   0  0  0  0  0
   -7.9503    4.5733    1.2070 C   0  0  0  0  0
   -0.6299   -2.0467   -1.6066 C   0  0  0  0  0
    1.4817   -1.6385   -1.8956 C   0  0  0  0  0
   -0.3414    1.0107   -0.5847 C   0  0  0  0  0
   -3.1617    2.7196    0.6577 C   0  0  0  0  0
   -4.9622    6.5434    0.0059 C   0  0  0  0  0
   -6.7478   -0.8958   -0.2533 C   0  0  0  0  0
    0.3136   -0.2710   -0.1163 C   0  0  0  0  0
   -1.7031    2.9019    0.2850 C   0  0  0  0  0
   -0.2012   -2.8416   -2.5609 N   0  0  0  0  0
    1.1422   -2.5818   -2.7448 N   0  0  0  0  0
    0.3966   -1.2717   -1.1588 N   0  0  0  0  0
   -3.8611    3.9112    0.4855 N   0  0  0  0  0
   -0.9920    1.6562    0.4568 N   0  0  0  0  0
   -0.2939    1.4105   -1.7449 O   0  0  0  0  0
   -3.6090    1.6435    1.0414 O   0  0  0  0  0
   -5.8523   -1.8072    0.3818 O   0  0  0  0  0
    3.0302   -0.9668   -1.7244 S   0  0  0  0  0
   -9.7896    4.8611    1.5328 Br  0  0  0  0  0
  1  8  1  0  0  0
  2  5  1  0  0  0
  3 10  1  0  0  0
  4 11  1  0  0  0
  6 12  1  0  0  0
  7  9  1  0  0  0
  8 13  1  0  0  0
 10 24  1  0  0  0
 11 28  1  0  0  0
 12 30  1  0  0  0
 13 23  1  0  0  0
 14 22  1  0  0  0
 14 23  1  0  0  0
 15 25  1  0  0  0
 16 24  1  0  0  0
 17  9  1  0  0  0
 18 28  1  0  0  0
 19 15  1  0  0  0
 19 23  1  0  0  0
 20 16  1  0  0  0
 20 25  1  0  0  0
 21 22  1  0  0  0
  1  4  2  0  0  0
  2  8  2  0  0  0
  3  6  2  0  0  0
  5 11  2  0  0  0
  7 12  2  0  0  0
  9 10  2  0  0  0
 13 21  2  0  0  0
 14 29  2  0  0  0
 15 26  2  0  0  0
 16 27  2  0  0  0
M  CHG  1  29  -1
M  END
> <rmsd>
0.53979671

$$$$
ZINC12856856


 30 32  0  0  0  0  0  0  0  0999 V2000
   -2.3485   -2.7782    0.0562 C   0  0  0  0  0
   -3.0008   -0.9889   -1.4304 C   0  0  0  0  0
   -5.8863    2.8567   -0.4277 C   0  0  0  0  0
   -3.6077   -2.7397    0.6551 C   0  0  0  0  0
   -4.2600   -0.9504   -0.8315 C   0  0  0  0  0
   -7.2116    2.9890   -0.8424 C   0  0  0  0  0
   -6.6935    5.1406   -1.8116 C   0  0  0  0  0
   -2.0450   -1.9028   -0.9865 C   0  0  0  0  0
   -5.3682    5.0083   -1.3968 C   0  0  0  0  0
   -4.9647    3.8664   -0.7049 C   0  0  0  0  0
   -4.5634   -1.8258    0.2113 C   0  0  0  0  0
   -7.6151    4.1309   -1.5344 C   0  0  0  0  0
   -0.7431   -1.9428   -1.6061 C   0  0  0  0  0
    1.3453   -1.5350   -2.0321 C   0  0  0  0  0
   -0.3341    1.0383   -0.4140 C   0  0  0  0  0
   -3.0724    2.6404    0.4178 C   0  0  0  0  0
   -4.4021    6.1057   -1.7064 C   0  0  0  0  0
   -6.0354   -2.7118    1.8558 C   0  0  0  0  0
    0.3373   -0.2771   -0.0822 C   0  0  0  0  0
   -1.5981    2.8803    0.6800 C   0  0  0  0  0
   -0.4006   -2.6771   -2.6404 N   0  0  0  0  0
    0.9281   -2.4175   -2.9114 N   0  0  0  0  0
    0.3256   -1.2078   -1.1906 N   0  0  0  0  0
   -3.6245    3.7136   -0.2764 N   0  0  0  0  0
   -0.8932    1.6197    0.7148 N   0  0  0  0  0
   -0.3709    1.5130   -1.5460 O   0  0  0  0  0
   -3.6432    1.6172    0.7816 O   0  0  0  0  0
   -5.7922   -1.7885    0.7955 O   0  0  0  0  0
    2.9115   -0.8896   -1.9392 S   0  0  0  0  0
   -9.4105    4.3089   -2.0971 Br  0  0  0  0  0
  1  8  1  0  0  0
  2  5  1  0  0  0
  3 10  1  0  0  0
  4 11  1  0  0  0
  6 12  1  0  0  0
  7  9  1  0  0  0
  8 13  1  0  0  0
 10 24  1  0  0  0
 11 28  1  0  0  0
 12 30  1  0  0  0
 13 23  1  0  0  0
 14 22  1  0  0  0
 14 23  1  0  0  0
 15 25  1  0  0  0
 16 24  1  0  0  0
 17  9  1  0  0  0
 18 28  1  0  0  0
 19 15  1  0  0  0
 19 23  1  0  0  0
 20 16  1  0  0  0
 20 25  1  0  0  0
 21 22  1  0  0  0
  1  4  2  0  0  0
  2  8  2  0  0  0
  3  6  2  0  0  0
  5 11  2  0  0  0
  7 12  2  0  0  0
  9 10  2  0  0  0
 13 21  2  0  0  0
 14 29  2  0  0  0
 15 26  2  0  0  0
 16 27  2  0  0  0
M  CHG  1  29  -1
M  END
> <rmsd>
0.498959333

$$$$
ZINC12856856


 30 32  0  0  0  0  0  0  0  0999 V2000
   -2.1938   -2.9200   -0.0319 C   0  0  0  0  0
   -2.8518   -1.1768   -1.5698 C   0  0  0  0  0
   -5.8736    2.9356   -0.8188 C   0  0  0  0  0
   -3.4713   -2.9082    0.5281 C   0  0  0  0  0
   -4.1293   -1.1650   -1.0099 C   0  0  0  0  0
   -7.1350    2.8972   -1.4128 C   0  0  0  0  0
   -6.1125    3.0686   -3.5951 C   0  0  0  0  0
   -1.8840   -2.0543   -1.0808 C   0  0  0  0  0
   -4.8511    3.1070   -3.0010 C   0  0  0  0  0
   -4.7315    3.0405   -1.6129 C   0  0  0  0  0
   -4.4389   -2.0307    0.0391 C   0  0  0  0  0
   -7.2545    2.9636   -2.8010 C   0  0  0  0  0
   -0.5631   -2.0667   -1.6601 C   0  0  0  0  0
    1.5247   -1.6050   -2.0306 C   0  0  0  0  0
   -0.2771    0.9455   -0.5110 C   0  0  0  0  0
   -3.0847    2.4804    0.2087 C   0  0  0  0  0
   -3.6444    3.2206   -3.8756 C   0  0  0  0  0
   -6.6264   -1.0972    0.0373 C   0  0  0  0  0
    0.4216   -0.3436   -0.1352 C   0  0  0  0  0
   -1.6267    2.7681    0.5108 C   0  0  0  0  0
   -0.1680   -2.8084   -2.6701 N   0  0  0  0  0
    1.1602   -2.5146   -2.9058 N   0  0  0  0  0
    0.4707   -1.2935   -1.2262 N   0  0  0  0  0
   -3.4605    3.0774   -0.9917 N   0  0  0  0  0
   -0.8870    1.5297    0.5897 N   0  0  0  0  0
   -0.2930    1.3991   -1.6521 O   0  0  0  0  0
   -3.7843    1.7996    0.9519 O   0  0  0  0  0
   -5.6856   -2.0194    0.5853 O   0  0  0  0  0
    3.0680   -0.9123   -1.9024 S   0  0  0  0  0
   -8.9639    2.9104   -3.6052 Br  0  0  0  0  0
  1  8  1  0  0  0
  2  5  1  0  0  0
  3 10  1  0  0  0
  4 11  1  0  0  0
  6 12  1  0  0  0
  7  9  1  0  0  0
  8 13  1  0  0  0
 10 24  1  0  0  0
 11 28  1  0  0  0
 12 30  1  0  0  0
 13 23  1  0  0  0
 14 22  1  0  0  0
 14 23  1  0  0  0
 15 25  1  0  0  0
 16 24  1  0  0  0
 17  9  1  0  0  0
 18 28  1  0  0  0
 19 15  1  0  0  0
 19 23  1  0  0  0
 20 16  1  0  0  0
 20 25  1  0  0  0
 21 22  1  0  0  0
  1  4  2  0  0  0
  2  8  2  0  0  0
  3  6  2  0  0  0
  5 11  2  0  0  0
  7 12  2  0  0  0
  9 10  2  0  0  0
 13 21  2  0  0  0
 14 29  2  0  0  0
 15 26  2  0  0  0
 16 27  2  0  0  0
M  CHG  1  29  -1
M  END
> <rmsd>
0.561915934

$$$$
ZINC09120613


 32 35  0  0  0  0  0  0  0  0999 V2000
   -5.0472    8.9022    2.4024 C   0  0  0  0  0
   -5.1205   -2.4729    0.6049 C   0  0  0  0  0
   -5.8304    7.7829    2.6841 C   0  0  0  0  0
   -3.8087    8.7480    1.7793 C   0  0  0  0  0
   -4.5848   -3.2000   -0.4581 C   0  0  0  0  0
   -4.8584   -1.1075    0.7182 C   0  0  0  0  0
   -5.3751    6.5093    2.3428 C   0  0  0  0  0
   -3.3535    7.4744    1.4380 C   0  0  0  0  0
    1.1205    1.4175   -0.9211 C   0  0  0  0  0
    0.3688   -0.3439    0.5519 C   0  0  0  0  0
    2.2022    0.6285   -1.3126 C   0  0  0  0  0
    1.4504   -1.1329    0.1603 C   0  0  0  0  0
   -3.7869   -2.5619   -1.4076 C   0  0  0  0  0
   -4.3501    3.9142    1.5986 C   0  0  0  0  0
   -4.0605   -0.4694   -0.2314 C   0  0  0  0  0
   -3.5387    2.9203    1.1082 C   0  0  0  0  0
   -4.1367    6.3551    1.7197 C   0  0  0  0  0
    0.2039    0.9313    0.0112 C   0  0  0  0  0
    2.3671   -0.6467   -0.7720 C   0  0  0  0  0
   -3.5248   -1.1966   -1.2943 C   0  0  0  0  0
   -2.4083    3.5997    0.6162 C   0  0  0  0  0
   -3.8167    0.9585   -0.0666 C   0  0  0  0  0
   -1.2444    3.0354   -0.0082 C   0  0  0  0  0
   -2.4905    4.9229    0.7789 N   0  0  0  0  0
   -3.7854    1.5368    1.1005 N   0  0  0  0  0
   -3.6825    5.0828    1.3786 N   0  0  0  0  0
   -0.8952    1.7334    0.4093 N   0  0  0  0  0
    3.4680   -1.4500   -1.1706 N   0  0  0  0  0
    4.2809   -0.9938   -2.0106 O   0  0  0  0  0
   -0.5608    3.6646   -0.8421 O   0  0  0  0  0
    3.5982   -2.5941   -0.6718 O   0  0  0  0  0
   -2.4294   -0.3783   -2.6099 Br  0  0  0  0  0
  1  3  1  0  0  0
  2  5  1  0  0  0
  4  8  1  0  0  0
  6 15  1  0  0  0
  7 17  1  0  0  0
  9 18  1  0  0  0
 10 12  1  0  0  0
 11 19  1  0  0  0
 13 20  1  0  0  0
 14 26  1  0  0  0
 15 22  1  0  0  0
 16 21  1  0  0  0
 16 25  1  0  0  0
 17 26  1  0  0  0
 18 27  1  0  0  0
 19 28  1  0  0  0
 20 32  1  0  0  0
 21 23  1  0  0  0
 23 27  1  0  0  0
 26 24  1  0  0  0
 28 29  1  0  0  0
  1  4  2  0  0  0
  2  6  2  0  0  0
  3  7  2  0  0  0
  5 13  2  0  0  0
  8 17  2  0  0  0
  9 11  2  0  0  0
 10 18  2  0  0  0
 12 19  2  0  0  0
 14 16  2  0  0  0
 15 20  2  0  0  0
 21 24  2  0  0  0
 22 25  2  0  0  0
 23 30  2  0  0  0
 28 31  2  0  0  0
M  CHG  2  28   1  29  -1
M  END
> <rmsd>
0.552349567

$$$$
ZINC08994703


 36 38  0  0  0  0  0  0  0  0999 V2000
   -7.4568    1.8518   -2.9752 C   0  0  0  0  0
   -3.5355   -4.4976   -0.7531 C   0  0  0  0  0
   -6.7436    0.6609   -3.1126 C   0  0  0  0  0
   -6.7807    3.0429   -2.7103 C   0  0  0  0  0
   -4.3096   -4.4483    0.4041 C   0  0  0  0  0
   -3.0482   -3.3194   -1.3172 C   0  0  0  0  0
   -5.3546    0.6609   -2.9852 C   0  0  0  0  0
   -5.3917    3.0429   -2.5828 C   0  0  0  0  0
   -4.5977   -3.2195    1.0000 C   0  0  0  0  0
   -3.3399   -2.0896   -0.7161 C   0  0  0  0  0
   -4.6787    1.8520   -2.7202 C   0  0  0  0  0
   -4.1152   -2.0283    0.4455 C   0  0  0  0  0
   -2.8306   -0.8295   -1.3007 C   0  0  0  0  0
   -3.9705    0.2767    0.5465 C   0  0  0  0  0
   -1.1903    1.5954   -1.0685 C   0  0  0  0  0
    1.1722   -0.0613    0.3433 C   0  0  0  0  0
    4.0975   -1.0583   -1.7087 C   0  0  0  0  0
    3.8605   -1.8674    0.7174 C   0  0  0  0  0
    1.0849    4.2268    1.5330 C   0  0  0  0  0
    0.5984    3.5099    3.8804 C   0  0  0  0  0
   -3.1757    1.8520   -2.5821 C   0  0  0  0  0
    0.9030    1.7714    2.0366 C   0  0  0  0  0
   -2.7130    1.6155   -1.1399 C   0  0  0  0  0
    0.6675    1.3591    0.5778 C   0  0  0  0  0
    3.1654   -1.2931   -0.5082 C   0  0  0  0  0
    0.3864    3.1777    2.4028 C   0  0  0  0  0
   -4.4250   -0.8143    1.0732 N   0  0  0  0  0
   -3.1808    0.3564   -0.6174 N   0  0  0  0  0
   -0.7284    1.3767    0.2251 N   0  0  0  0  0
    2.4683   -0.0780   -0.1530 N   0  0  0  0  0
    5.0886   -1.8328   -1.8119 O   0  0  0  0  0
   -2.1483   -0.8757   -2.3205 O   0  0  0  0  0
   -0.4720    1.7960   -2.0456 O   0  0  0  0  0
    0.4787   -1.0581    0.5351 O   0  0  0  0  0
    3.7499   -0.1017   -2.4613 O   0  0  0  0  0
   -4.2752    1.4493    1.1623 O   0  0  0  0  0
  1  3  1  0  0  0
  2  5  1  0  0  0
  4  8  1  0  0  0
  6 10  1  0  0  0
  7 11  1  0  0  0
  9 12  1  0  0  0
 10 13  1  0  0  0
 12 27  1  0  0  0
 13 28  1  0  0  0
 14 28  1  0  0  0
 14 36  1  0  0  0
 15 29  1  0  0  0
 16 30  1  0  0  0
 17 31  1  0  0  0
 18 25  1  0  0  0
 19 26  1  0  0  0
 20 26  1  0  0  0
 21 11  1  0  0  0
 21 23  1  0  0  0
 22 24  1  0  0  0
 22 26  1  0  0  0
 23 15  1  0  0  0
 23 28  1  0  0  0
 24 16  1  0  0  0
 24 29  1  0  0  0
 25 17  1  0  0  0
 25 30  1  0  0  0
  1  4  2  0  0  0
  2  6  2  0  0  0
  3  7  2  0  0  0
  5  9  2  0  0  0
  8 11  2  0  0  0
 10 12  2  0  0  0
 13 32  2  0  0  0
 14 27  2  0  0  0
 15 33  2  0  0  0
 16 34  2  0  0  0
 17 35  2  0  0  0
M  CHG  1  31  -1
M  END
> <rmsd>
0.613038898

$$$$
ZINC08995797


 36 38  0  0  0  0  0  0  0  0999 V2000
   -7.0416    1.4893   -3.3827 C   0  0  0  0  0
   -2.7236   -4.5017   -0.9146 C   0  0  0  0  0
   -6.2063    0.3759   -3.4737 C   0  0  0  0  0
   -6.5107    2.7336   -3.0427 C   0  0  0  0  0
   -3.5955   -4.5533    0.1708 C   0  0  0  0  0
   -2.3073   -3.2696   -1.4169 C   0  0  0  0  0
   -4.8401    0.5069   -3.2248 C   0  0  0  0  0
   -5.1445    2.8645   -2.7936 C   0  0  0  0  0
   -4.0527   -3.3716    0.7563 C   0  0  0  0  0
   -2.7685   -2.0875   -0.8264 C   0  0  0  0  0
   -4.3091    1.7512   -2.8847 C   0  0  0  0  0
   -3.6432   -2.1273    0.2633 C   0  0  0  0  0
   -2.3367   -0.7713   -1.3462 C   0  0  0  0  0
   -3.7339    0.1780    0.4091 C   0  0  0  0  0
   -0.9676    1.7944   -0.9368 C   0  0  0  0  0
    1.4527    0.3620    0.6247 C   0  0  0  0  0
    3.4926   -0.9983   -1.5551 C   0  0  0  0  0
    0.3273    1.5418    4.7736 C   0  0  0  0  0
    5.0753   -0.2529    0.3254 C   0  0  0  0  0
    0.2077    3.5472    2.4990 C   0  0  0  0  0
   -2.8310    1.8928   -2.6151 C   0  0  0  0  0
    0.2253    1.1322    3.3098 C   0  0  0  0  0
   -2.4732    1.6694   -1.1413 C   0  0  0  0  0
    0.7559    1.7010    0.8630 C   0  0  0  0  0
    3.6475   -0.5858   -0.0817 C   0  0  0  0  0
    0.8454    2.1608    2.3382 C   0  0  0  0  0
   -4.1232   -0.9633    0.8784 N   0  0  0  0  0
   -2.8588    0.3596   -0.6797 N   0  0  0  0  0
   -0.6006    1.5919    0.3889 N   0  0  0  0  0
    2.7754    0.5217    0.2366 N   0  0  0  0  0
    3.8432   -0.1465   -2.4180 O   0  0  0  0  0
   -1.5679   -0.7285   -2.3027 O   0  0  0  0  0
   -0.1910    2.0852   -1.8439 O   0  0  0  0  0
    0.8793   -0.7193    0.7409 O   0  0  0  0  0
    3.0265   -2.1627   -1.7260 O   0  0  0  0  0
   -4.2038    1.3015    1.0123 O   0  0  0  0  0
  1  3  1  0  0  0
  2  5  1  0  0  0
  4  8  1  0  0  0
  6 10  1  0  0  0
  7 11  1  0  0  0
  9 12  1  0  0  0
 10 13  1  0  0  0
 12 27  1  0  0  0
 13 28  1  0  0  0
 14 28  1  0  0  0
 14 36  1  0  0  0
 15 29  1  0  0  0
 16 30  1  0  0  0
 17 31  1  0  0  0
 18 22  1  0  0  0
 19 25  1  0  0  0
 20 26  1  0  0  0
 21 11  1  0  0  0
 21 23  1  0  0  0
 22 26  1  0  0  0
 23 15  1  0  0  0
 23 28  1  0  0  0
 24 16  1  0  0  0
 24 26  1  0  0  0
 24 29  1  0  0  0
 25 17  1  0  0  0
 25 30  1  0  0  0
  1  4  2  0  0  0
  2  6  2  0  0  0
  3  7  2  0  0  0
  5  9  2  0  0  0
  8 11  2  0  0  0
 10 12  2  0  0  0
 13 32  2  0  0  0
 14 27  2  0  0  0
 15 33  2  0  0  0
 16 34  2  0  0  0
 17 35  2  0  0  0
M  CHG  1  31  -1
M  END
> <rmsd>
0.580807507

$$$$
ZINC08995797


 36 38  0  0  0  0  0  0  0  0999 V2000
   -6.9203    1.4564   -3.5519 C   0  0  0  0  0
   -3.1804   -4.6097   -0.4144 C   0  0  0  0  0
   -6.1755    0.2777   -3.5149 C   0  0  0  0  0
   -6.3011    2.6808   -3.3006 C   0  0  0  0  0
   -4.0868   -4.4964    0.6375 C   0  0  0  0  0
   -2.6502   -3.4634   -1.0049 C   0  0  0  0  0
   -4.8115    0.3233   -3.2265 C   0  0  0  0  0
   -4.9372    2.7264   -3.0120 C   0  0  0  0  0
   -4.4647   -3.2353    1.1012 C   0  0  0  0  0
   -3.0322   -2.2011   -0.5365 C   0  0  0  0  0
   -4.1923    1.5477   -2.9750 C   0  0  0  0  0
   -3.9407   -2.0755    0.5187 C   0  0  0  0  0
   -2.4793   -0.9741   -1.1510 C   0  0  0  0  0
   -3.8488    0.2337    0.4616 C   0  0  0  0  0
   -0.9202    1.5032   -0.9126 C   0  0  0  0  0
    1.3265    0.0310    0.8574 C   0  0  0  0  0
    3.3161   -1.6727   -1.1181 C   0  0  0  0  0
    0.1725    1.6594    4.8433 C   0  0  0  0  0
    4.8950   -0.8887    0.7499 C   0  0  0  0  0
    0.2862    3.4578    2.4014 C   0  0  0  0  0
   -2.7166    1.5970   -2.6627 C   0  0  0  0  0
    0.0830    1.1304    3.4175 C   0  0  0  0  0
   -2.4239    1.4783   -1.1626 C   0  0  0  0  0
    0.7335    1.4362    0.9527 C   0  0  0  0  0
    3.4582   -1.1440    0.3191 C   0  0  0  0  0
    0.8142    2.0170    2.3850 C   0  0  0  0  0
   -4.3435   -0.8276    1.0124 N   0  0  0  0  0
   -2.9285    0.2489   -0.6048 N   0  0  0  0  0
   -0.6121    1.3915    0.4386 N   0  0  0  0  0
    2.6692    0.0520    0.5074 N   0  0  0  0  0
    3.7611   -0.9310   -2.0372 O   0  0  0  0  0
   -1.6803   -1.0766   -2.0777 O   0  0  0  0  0
   -0.0948    1.6507   -1.8113 O   0  0  0  0  0
    0.6641   -0.9875    1.0444 O   0  0  0  0  0
    2.7627   -2.8077   -1.2056 O   0  0  0  0  0
   -4.2445    1.4396    0.9474 O   0  0  0  0  0
  1  3  1  0  0  0
  2  5  1  0  0  0
  4  8  1  0  0  0
  6 10  1  0  0  0
  7 11  1  0  0  0
  9 12  1  0  0  0
 10 13  1  0  0  0
 12 27  1  0  0  0
 13 28  1  0  0  0
 14 28  1  0  0  0
 14 36  1  0  0  0
 15 29  1  0  0  0
 16 30  1  0  0  0
 17 31  1  0  0  0
 18 22  1  0  0  0
 19 25  1  0  0  0
 20 26  1  0  0  0
 21 11  1  0  0  0
 21 23  1  0  0  0
 22 26  1  0  0  0
 23 15  1  0  0  0
 23 28  1  0  0  0
 24 16  1  0  0  0
 24 26  1  0  0  0
 24 29  1  0  0  0
 25 17  1  0  0  0
 25 30  1  0  0  0
  1  4  2  0  0  0
  2  6  2  0  0  0
  3  7  2  0  0  0
  5  9  2  0  0  0
  8 11  2  0  0  0
 10 12  2  0  0  0
 13 32  2  0  0  0
 14 27  2  0  0  0
 15 33  2  0  0  0
 16 34  2  0  0  0
 17 35  2  0  0  0
M  CHG  1  31  -1
M  END
> <rmsd>
0.505244851

$$$$
ZINC32961633


 35 38  0  0  0  0  0  0  0  0999 V2000
    8.6603    1.4453   -5.9378 C   0  0  0  0  0
    8.7040    1.8381   -7.2755 C   0  0  0  0  0
   -2.9399   -2.1985   -1.8862 C   0  0  0  0  0
    1.0099    2.8743   -2.2077 C   0  0  0  0  0
   -0.0467    2.7606   -1.3041 C   0  0  0  0  0
    7.5130    1.6786   -5.1796 C   0  0  0  0  0
   -2.9033   -0.8263   -1.6389 C   0  0  0  0  0
    0.9944    0.8091   -0.3322 C   0  0  0  0  0
   -2.7212   -2.6311    0.4807 C   0  0  0  0  0
    2.0509    0.9228   -1.2358 C   0  0  0  0  0
   -2.8489   -3.1010   -0.8264 C   0  0  0  0  0
    7.6004    2.4642   -7.8549 C   0  0  0  0  0
   -2.6844   -1.2589    0.7281 C   0  0  0  0  0
    6.4531    2.6976   -7.0966 C   0  0  0  0  0
    2.0586    1.9553   -2.1736 C   0  0  0  0  0
   -0.0544    1.7281   -0.3664 C   0  0  0  0  0
    6.4094    2.3048   -5.7590 C   0  0  0  0  0
   -2.7755   -0.3565   -0.3317 C   0  0  0  0  0
    3.1475   -0.0622   -1.1783 C   0  0  0  0  0
    4.2592    2.9120   -2.6897 C   0  0  0  0  0
    2.8273    2.0212   -4.5282 C   0  0  0  0  0
    5.5093    2.5020   -3.4605 C   0  0  0  0  0
    4.0761    1.6133   -5.3038 C   0  0  0  0  0
   -2.8879   -4.5684   -1.0916 C   0  0  0  0  0
    7.6736    2.8761   -9.2890 C   0  0  0  0  0
   -2.5468   -0.7886    2.1392 C   0  0  0  0  0
    5.2708    3.3705   -7.7198 C   0  0  0  0  0
    3.1094    2.0866   -3.0891 N   0  0  0  0  0
   -1.1361    1.6121    0.5582 N   0  0  0  0  0
    5.1983    2.5434   -4.9322 N   0  0  0  0  0
    3.0520   -1.1333   -1.8843 O   0  0  0  0  0
    4.1596    0.1852   -0.4239 O   0  0  0  0  0
   -3.6857    1.6730    1.0019 O   0  0  0  0  0
   -2.8651    2.0472   -1.3403 O   0  0  0  0  0
   -2.7312    1.3909   -0.0540 S   0  0  0  0  0
  1  2  1  0  0  0
  3 11  1  0  0  0
  4 15  1  0  0  0
  5 16  1  0  0  0
  6 17  1  0  0  0
  7 18  1  0  0  0
  8 10  1  0  0  0
  9 13  1  0  0  0
 10 19  1  0  0  0
 12 14  1  0  0  0
 15 28  1  0  0  0
 16 29  1  0  0  0
 17 30  1  0  0  0
 19 31  1  0  0  0
 20 22  1  0  0  0
 20 28  1  0  0  0
 21 23  1  0  0  0
 21 28  1  0  0  0
 22 30  1  0  0  0
 23 30  1  0  0  0
 24 11  1  0  0  0
 25 12  1  0  0  0
 26 13  1  0  0  0
 27 14  1  0  0  0
 35 18  1  0  0  0
 35 29  1  0  0  0
  1  6  2  0  0  0
  2 12  2  0  0  0
  3  7  2  0  0  0
  4  5  2  0  0  0
  8 16  2  0  0  0
  9 11  2  0  0  0
 10 15  2  0  0  0
 13 18  2  0  0  0
 14 17  2  0  0  0
 19 32  2  0  0  0
 35 33  2  0  0  0
 35 34  2  0  0  0
M  CHG  2  30   1  31  -1
M  END
> <rmsd>
0.709950089

$$$$
ZINC32961633


 35 38  0  0  0  0  0  0  0  0999 V2000
    7.9931    0.4388   -6.9767 C   0  0  0  0  0
    7.9420    0.8110   -8.3200 C   0  0  0  0  0
   -3.4256   -2.2287   -1.8040 C   0  0  0  0  0
    0.8585    2.5120   -2.5853 C   0  0  0  0  0
   -0.1147    2.4929   -1.5862 C   0  0  0  0  0
    6.9432    0.7710   -6.1205 C   0  0  0  0  0
   -3.2597   -0.8609   -1.5875 C   0  0  0  0  0
    0.8581    0.4769   -0.6771 C   0  0  0  0  0
   -3.0210   -2.6492    0.5405 C   0  0  0  0  0
    1.8312    0.4959   -1.6763 C   0  0  0  0  0
   -3.3063   -3.1230   -0.7401 C   0  0  0  0  0
    6.8410    1.5155   -8.8071 C   0  0  0  0  0
   -2.8549   -1.2813    0.7571 C   0  0  0  0  0
    5.7911    1.8478   -7.9509 C   0  0  0  0  0
    1.8314    1.5134   -2.6304 C   0  0  0  0  0
   -0.1149    1.4754   -0.6321 C   0  0  0  0  0
    5.8422    1.4755   -6.6076 C   0  0  0  0  0
   -2.9743   -0.3871   -0.3069 C   0  0  0  0  0
    2.8486   -0.5718   -1.7012 C   0  0  0  0  0
    4.0416    2.2871   -3.3653 C   0  0  0  0  0
    2.3796    1.4904   -5.0467 C   0  0  0  0  0
    5.1788    1.7704   -4.2401 C   0  0  0  0  0
    3.5151    0.9760   -5.9261 C   0  0  0  0  0
   -3.4836   -4.5857   -0.9724 C   0  0  0  0  0
    6.8117    1.9032  -10.2494 C   0  0  0  0  0
   -2.5501   -0.8066    2.1402 C   0  0  0  0  0
    4.6116    2.6045   -8.4752 C   0  0  0  0  0
    2.7991    1.5505   -3.6412 N   0  0  0  0  0
   -1.1112    1.4562    0.3903 N   0  0  0  0  0
    4.7358    1.8189   -5.6774 N   0  0  0  0  0
    2.6048   -1.6403   -2.3748 O   0  0  0  0  0
    3.9429   -0.3962   -1.0482 O   0  0  0  0  0
   -3.5958    1.7236    1.0658 O   0  0  0  0  0
   -2.9710    2.0040   -1.3487 O   0  0  0  0  0
   -2.7689    1.3545   -0.0679 S   0  0  0  0  0
  1  2  1  0  0  0
  3 11  1  0  0  0
  4 15  1  0  0  0
  5 16  1  0  0  0
  6 17  1  0  0  0
  7 18  1  0  0  0
  8 10  1  0  0  0
  9 13  1  0  0  0
 10 19  1  0  0  0
 12 14  1  0  0  0
 15 28  1  0  0  0
 16 29  1  0  0  0
 17 30  1  0  0  0
 19 31  1  0  0  0
 20 22  1  0  0  0
 20 28  1  0  0  0
 21 23  1  0  0  0
 21 28  1  0  0  0
 22 30  1  0  0  0
 23 30  1  0  0  0
 24 11  1  0  0  0
 25 12  1  0  0  0
 26 13  1  0  0  0
 27 14  1  0  0  0
 35 18  1  0  0  0
 35 29  1  0  0  0
  1  6  2  0  0  0
  2 12  2  0  0  0
  3  7  2  0  0  0
  4  5  2  0  0  0
  8 16  2  0  0  0
  9 11  2  0  0  0
 10 15  2  0  0  0
 13 18  2  0  0  0
 14 17  2  0  0  0
 19 32  2  0  0  0
 35 33  2  0  0  0
 35 34  2  0  0  0
M  CHG  2  30   1  31  -1
M  END
> <rmsd>
0.528572381

$$$$
ZINC32961635


 35 38  0  0  0  0  0  0  0  0999 V2000
    8.0102    0.4643   -6.9575 C   0  0  0  0  0
    7.9636    0.8455   -8.2985 C   0  0  0  0  0
    0.8688    2.5251   -2.5713 C   0  0  0  0  0
   -0.1070    2.5016   -1.5749 C   0  0  0  0  0
    6.9588    0.7932   -6.1019 C   0  0  0  0  0
    0.8586    0.4773   -0.6767 C   0  0  0  0  0
   -3.3063   -3.1219   -0.7184 C   0  0  0  0  0
   -3.3755   -1.1949    0.7373 C   0  0  0  0  0
   -2.7426   -0.9362   -1.5799 C   0  0  0  0  0
    1.8345    0.5007   -1.6732 C   0  0  0  0  0
    6.8655    1.5557   -8.7838 C   0  0  0  0  0
   -3.5403   -2.5657    0.5392 C   0  0  0  0  0
   -2.9074   -2.3070   -1.7780 C   0  0  0  0  0
    5.8142    1.8848   -7.9281 C   0  0  0  0  0
    1.8395    1.5245   -2.6205 C   0  0  0  0  0
   -0.1121    1.4778   -0.6276 C   0  0  0  0  0
    5.8608    1.5036   -6.5873 C   0  0  0  0  0
   -2.9767   -0.3801   -0.3223 C   0  0  0  0  0
    2.8494   -0.5692   -1.7025 C   0  0  0  0  0
    4.0535    2.2978   -3.3444 C   0  0  0  0  0
    2.3941    1.5163   -5.0354 C   0  0  0  0  0
    5.1918    1.7843   -4.2196 C   0  0  0  0  0
    3.5307    1.0050   -5.9152 C   0  0  0  0  0
    6.8410    1.9531  -10.2236 C   0  0  0  0  0
   -3.9665   -3.4369    1.6721 C   0  0  0  0  0
   -2.6570   -2.9018   -3.1225 C   0  0  0  0  0
    4.6378    2.6478   -8.4506 C   0  0  0  0  0
    2.8100    1.5660   -3.6285 N   0  0  0  0  0
   -1.1112    1.4542    0.3920 N   0  0  0  0  0
    4.7527    1.8433   -5.6577 N   0  0  0  0  0
    2.6049   -1.6326   -2.3838 O   0  0  0  0  0
    3.9424   -0.4005   -1.0454 O   0  0  0  0  0
   -3.5970    1.7229    1.0627 O   0  0  0  0  0
   -2.9651    2.0179   -1.3483 O   0  0  0  0  0
   -2.7679    1.3594   -0.0713 S   0  0  0  0  0
  1  5  1  0  0  0
  2 11  1  0  0  0
  3 15  1  0  0  0
  4 16  1  0  0  0
  6 10  1  0  0  0
  7 12  1  0  0  0
  8 18  1  0  0  0
  9 13  1  0  0  0
 10 19  1  0  0  0
 14 17  1  0  0  0
 15 28  1  0  0  0
 16 29  1  0  0  0
 17 30  1  0  0  0
 19 31  1  0  0  0
 20 22  1  0  0  0
 20 28  1  0  0  0
 21 23  1  0  0  0
 21 28  1  0  0  0
 22 30  1  0  0  0
 23 30  1  0  0  0
 24 11  1  0  0  0
 25 12  1  0  0  0
 26 13  1  0  0  0
 27 14  1  0  0  0
 35 18  1  0  0  0
 35 29  1  0  0  0
  1  2  2  0  0  0
  3  4  2  0  0  0
  5 17  2  0  0  0
  6 16  2  0  0  0
  7 13  2  0  0  0
  8 12  2  0  0  0
  9 18  2  0  0  0
 10 15  2  0  0  0
 11 14  2  0  0  0
 19 32  2  0  0  0
 35 33  2  0  0  0
 35 34  2  0  0  0
M  CHG  2  30   1  31  -1
M  END
> <rmsd>
0.52619803

$$$$
ZINC32961635


 35 38  0  0  0  0  0  0  0  0999 V2000
    8.6785    1.4621   -5.9085 C   0  0  0  0  0
    8.7269    1.8635   -7.2435 C   0  0  0  0  0
    1.0208    2.8844   -2.1907 C   0  0  0  0  0
   -0.0386    2.7672   -1.2909 C   0  0  0  0  0
    7.5296    1.6931   -5.1520 C   0  0  0  0  0
    0.9953    0.8070   -0.3288 C   0  0  0  0  0
   -2.8524   -3.1010   -0.8030 C   0  0  0  0  0
   -3.2076   -1.2126    0.6615 C   0  0  0  0  0
   -2.3844   -0.8627   -1.5828 C   0  0  0  0  0
    2.0546    0.9241   -1.2287 C   0  0  0  0  0
    7.6264    2.4959   -7.8219 C   0  0  0  0  0
   -3.2452   -2.5881    0.4333 C   0  0  0  0  0
   -2.4219   -2.2383   -1.8110 C   0  0  0  0  0
    6.4775    2.7270   -7.0653 C   0  0  0  0  0
    2.0674    1.9627   -2.1597 C   0  0  0  0  0
   -0.0513    1.7286   -0.3600 C   0  0  0  0  0
    6.4291    2.3256   -5.7305 C   0  0  0  0  0
   -2.7773   -0.3498   -0.3466 C   0  0  0  0  0
    3.1487   -0.0637   -1.1745 C   0  0  0  0  0
    4.2715    2.9177   -2.6633 C   0  0  0  0  0
    2.8429    2.0422   -4.5116 C   0  0  0  0  0
    5.5229    2.5098   -3.4332 C   0  0  0  0  0
    4.0929    1.6366   -5.2863 C   0  0  0  0  0
    7.7046    2.9170   -9.2531 C   0  0  0  0  0
   -3.7052   -3.5105    1.5111 C   0  0  0  0  0
   -2.0018   -2.7868   -3.1327 C   0  0  0  0  0
    5.2985    3.4067   -7.6875 C   0  0  0  0  0
    3.1210    2.0976   -3.0714 N   0  0  0  0  0
   -1.1359    1.6091    0.5608 N   0  0  0  0  0
    5.2161    2.5616   -4.9055 N   0  0  0  0  0
    3.0528   -1.1299   -1.8878 O   0  0  0  0  0
    4.1593    0.1764   -0.4156 O   0  0  0  0  0
   -3.6866    1.6730    0.9976 O   0  0  0  0  0
   -2.8585    2.0606   -1.3397 O   0  0  0  0  0
   -2.7298    1.3956   -0.0574 S   0  0  0  0  0
  1  5  1  0  0  0
  2 11  1  0  0  0
  3 15  1  0  0  0
  4 16  1  0  0  0
  6 10  1  0  0  0
  7 12  1  0  0  0
  8 18  1  0  0  0
  9 13  1  0  0  0
 10 19  1  0  0  0
 14 17  1  0  0  0
 15 28  1  0  0  0
 16 29  1  0  0  0
 17 30  1  0  0  0
 19 31  1  0  0  0
 20 22  1  0  0  0
 20 28  1  0  0  0
 21 23  1  0  0  0
 21 28  1  0  0  0
 22 30  1  0  0  0
 23 30  1  0  0  0
 24 11  1  0  0  0
 25 12  1  0  0  0
 26 13  1  0  0  0
 27 14  1  0  0  0
 35 18  1  0  0  0
 35 29  1  0  0  0
  1  2  2  0  0  0
  3  4  2  0  0  0
  5 17  2  0  0  0
  6 16  2  0  0  0
  7 13  2  0  0  0
  8 12  2  0  0  0
  9 18  2  0  0  0
 10 15  2  0  0  0
 11 14  2  0  0  0
 19 32  2  0  0  0
 35 33  2  0  0  0
 35 34  2  0  0  0
M  CHG  2  30   1  31  -1
M  END
> <rmsd>
0.706833363

$$$$
ZINC32961640


 35 38  0  0  0  0  0  0  0  0999 V2000
    7.9603    0.8455   -8.3021 C   0  0  0  0  0
    6.8614    1.5557   -8.7853 C   0  0  0  0  0
   -3.5399   -2.5665    0.5396 C   0  0  0  0  0
   -2.9066   -2.3071   -1.7774 C   0  0  0  0  0
    0.8686    2.5243   -2.5710 C   0  0  0  0  0
   -0.1072    2.5010   -1.5745 C   0  0  0  0  0
   -3.3756   -1.1956    0.7379 C   0  0  0  0  0
   -2.7423   -0.9363   -1.5791 C   0  0  0  0  0
    0.8584    0.4768   -0.6762 C   0  0  0  0  0
    6.9593    0.7920   -6.1040 C   0  0  0  0  0
    1.8342    0.5001   -1.6727 C   0  0  0  0  0
   -3.3053   -3.1223   -0.7181 C   0  0  0  0  0
    8.0093    0.4636   -6.9614 C   0  0  0  0  0
    5.8114    1.8841   -7.9278 C   0  0  0  0  0
    1.8392    1.5238   -2.6201 C   0  0  0  0  0
   -0.1123    1.4773   -0.6271 C   0  0  0  0  0
    5.8603    1.5023   -6.5872 C   0  0  0  0  0
   -2.9770   -0.3805   -0.3215 C   0  0  0  0  0
    2.8491   -0.5699   -1.7020 C   0  0  0  0  0
    4.0532    2.2970   -3.3443 C   0  0  0  0  0
    2.3937    1.5152   -5.0351 C   0  0  0  0  0
    5.1914    1.7833   -4.2195 C   0  0  0  0  0
    3.5302    1.0039   -5.9149 C   0  0  0  0  0
    9.1842   -0.2958   -6.4449 C   0  0  0  0  0
    4.6456    2.6445   -8.4701 C   0  0  0  0  0
   -2.1941   -5.3693   -0.6652 C   0  0  0  0  0
   -3.4787   -4.5882   -0.9300 C   0  0  0  0  0
    2.8096    1.5651   -3.6282 N   0  0  0  0  0
   -1.1113    1.4538    0.3925 N   0  0  0  0  0
    4.7522    1.8422   -5.6575 N   0  0  0  0  0
    2.6045   -1.6334   -2.3832 O   0  0  0  0  0
    3.9421   -0.4012   -1.0450 O   0  0  0  0  0
   -3.5970    1.7227    1.0634 O   0  0  0  0  0
   -2.9653    2.0174   -1.3477 O   0  0  0  0  0
   -2.7680    1.3591   -0.0706 S   0  0  0  0  0
  1 13  1  0  0  0
  2 14  1  0  0  0
  3 12  1  0  0  0
  4  8  1  0  0  0
  5 15  1  0  0  0
  6 16  1  0  0  0
  7 18  1  0  0  0
  9 11  1  0  0  0
 10 17  1  0  0  0
 11 19  1  0  0  0
 15 28  1  0  0  0
 16 29  1  0  0  0
 17 30  1  0  0  0
 19 31  1  0  0  0
 20 22  1  0  0  0
 20 28  1  0  0  0
 21 23  1  0  0  0
 21 28  1  0  0  0
 22 30  1  0  0  0
 23 30  1  0  0  0
 24 13  1  0  0  0
 25 14  1  0  0  0
 26 27  1  0  0  0
 27 12  1  0  0  0
 35 18  1  0  0  0
 35 29  1  0  0  0
  1  2  2  0  0  0
  3  7  2  0  0  0
  4 12  2  0  0  0
  5  6  2  0  0  0
  8 18  2  0  0  0
  9 16  2  0  0  0
 10 13  2  0  0  0
 11 15  2  0  0  0
 14 17  2  0  0  0
 19 32  2  0  0  0
 35 33  2  0  0  0
 35 34  2  0  0  0
M  CHG  2  30   1  31  -1
M  END
> <rmsd>
0.52651459

$$$$
ZINC32961640


 35 38  0  0  0  0  0  0  0  0999 V2000
    8.7240    1.8635   -7.2475 C   0  0  0  0  0
    7.6224    2.4958   -7.8239 C   0  0  0  0  0
   -3.2447   -2.5888    0.4336 C   0  0  0  0  0
   -2.4212   -2.2383   -1.8105 C   0  0  0  0  0
    1.0206    2.8837   -2.1904 C   0  0  0  0  0
   -0.0388    2.7666   -1.2906 C   0  0  0  0  0
   -3.2077   -1.2133    0.6620 C   0  0  0  0  0
   -2.3841   -0.8628   -1.5821 C   0  0  0  0  0
    0.9951    0.8065   -0.3283 C   0  0  0  0  0
    7.5303    1.6920   -5.1541 C   0  0  0  0  0
    2.0544    0.9235   -1.2283 C   0  0  0  0  0
   -2.8514   -3.1013   -0.8026 C   0  0  0  0  0
    8.6780    1.4616   -5.9126 C   0  0  0  0  0
    6.4747    2.7262   -7.0653 C   0  0  0  0  0
    2.0671    1.9620   -2.1593 C   0  0  0  0  0
   -0.0515    1.7281   -0.3595 C   0  0  0  0  0
    6.4286    2.3244   -5.7304 C   0  0  0  0  0
   -2.7775   -0.3503   -0.3458 C   0  0  0  0  0
    3.1485   -0.0644   -1.1741 C   0  0  0  0  0
    4.2713    2.9169   -2.6632 C   0  0  0  0  0
    2.8425    2.0412   -4.5114 C   0  0  0  0  0
    5.5226    2.5089   -3.4332 C   0  0  0  0  0
    4.0925    1.6355   -5.2861 C   0  0  0  0  0
    9.8557    0.7855   -5.2964 C   0  0  0  0  0
    5.3083    3.4045   -7.7063 C   0  0  0  0  0
   -1.5770   -5.2566   -0.6709 C   0  0  0  0  0
   -2.8889   -4.5720   -1.0465 C   0  0  0  0  0
    3.1207    2.0968   -3.0711 N   0  0  0  0  0
   -1.1360    1.6087    0.5613 N   0  0  0  0  0
    5.2157    2.5605   -4.9054 N   0  0  0  0  0
    3.0524   -1.1307   -1.8873 O   0  0  0  0  0
    4.1591    0.1758   -0.4153 O   0  0  0  0  0
   -3.6867    1.6727    0.9983 O   0  0  0  0  0
   -2.8588    2.0601   -1.3391 O   0  0  0  0  0
   -2.7299    1.3952   -0.0567 S   0  0  0  0  0
  1 13  1  0  0  0
  2 14  1  0  0  0
  3 12  1  0  0  0
  4  8  1  0  0  0
  5 15  1  0  0  0
  6 16  1  0  0  0
  7 18  1  0  0  0
  9 11  1  0  0  0
 10 17  1  0  0  0
 11 19  1  0  0  0
 15 28  1  0  0  0
 16 29  1  0  0  0
 17 30  1  0  0  0
 19 31  1  0  0  0
 20 22  1  0  0  0
 20 28  1  0  0  0
 21 23  1  0  0  0
 21 28  1  0  0  0
 22 30  1  0  0  0
 23 30  1  0  0  0
 24 13  1  0  0  0
 25 14  1  0  0  0
 26 27  1  0  0  0
 27 12  1  0  0  0
 35 18  1  0  0  0
 35 29  1  0  0  0
  1  2  2  0  0  0
  3  7  2  0  0  0
  4 12  2  0  0  0
  5  6  2  0  0  0
  8 18  2  0  0  0
  9 16  2  0  0  0
 10 13  2  0  0  0
 11 15  2  0  0  0
 14 17  2  0  0  0
 19 32  2  0  0  0
 35 33  2  0  0  0
 35 34  2  0  0  0
M  CHG  2  30   1  31  -1
M  END
> <rmsd>
0.707305491

$$$$
ZINC32961641


 35 38  0  0  0  0  0  0  0  0999 V2000
    7.9612    0.8469   -8.3017 C   0  0  0  0  0
    6.8622    1.5571   -8.7849 C   0  0  0  0  0
    0.8690    2.5249   -2.5708 C   0  0  0  0  0
   -0.1069    2.5014   -1.5744 C   0  0  0  0  0
    0.8588    0.4772   -0.6762 C   0  0  0  0  0
   -3.3061   -3.1220   -0.7179 C   0  0  0  0  0
    6.9600    0.7931   -6.1036 C   0  0  0  0  0
   -3.3754   -1.1951    0.7379 C   0  0  0  0  0
   -2.7425   -0.9364   -1.5794 C   0  0  0  0  0
    1.8346    0.5006   -1.6726 C   0  0  0  0  0
    8.0101    0.4648   -6.9610 C   0  0  0  0  0
    5.8122    1.8853   -7.9274 C   0  0  0  0  0
   -3.5401   -2.5659    0.5398 C   0  0  0  0  0
   -2.9072   -2.3072   -1.7775 C   0  0  0  0  0
    1.8397    1.5244   -2.6200 C   0  0  0  0  0
   -0.1120    1.4776   -0.6271 C   0  0  0  0  0
    5.8610    1.5034   -6.5868 C   0  0  0  0  0
   -2.9766   -0.3802   -0.3218 C   0  0  0  0  0
    2.8496   -0.5693   -1.7020 C   0  0  0  0  0
    4.0537    2.2977   -3.3439 C   0  0  0  0  0
    2.3943    1.5161   -5.0349 C   0  0  0  0  0
    5.1919    1.7842   -4.2191 C   0  0  0  0  0
    3.5309    1.0049   -5.9147 C   0  0  0  0  0
    9.1849   -0.2946   -6.4445 C   0  0  0  0  0
    4.6464    2.6458   -8.4697 C   0  0  0  0  0
   -3.9664   -3.4371    1.6726 C   0  0  0  0  0
   -2.6568   -2.9020   -3.1220 C   0  0  0  0  0
    2.8101    1.5659   -3.6280 N   0  0  0  0  0
   -1.1110    1.4540    0.3925 N   0  0  0  0  0
    4.7529    1.8432   -5.6572 N   0  0  0  0  0
    2.6051   -1.6328   -2.3833 O   0  0  0  0  0
    3.9425   -0.4007   -1.0449 O   0  0  0  0  0
   -3.5968    1.7228    1.0632 O   0  0  0  0  0
   -2.9649    2.0178   -1.3478 O   0  0  0  0  0
   -2.7677    1.3593   -0.0708 S   0  0  0  0  0
  1 11  1  0  0  0
  2 12  1  0  0  0
  3 15  1  0  0  0
  4 16  1  0  0  0
  5 10  1  0  0  0
  6 13  1  0  0  0
  7 17  1  0  0  0
  8 18  1  0  0  0
  9 14  1  0  0  0
 10 19  1  0  0  0
 15 28  1  0  0  0
 16 29  1  0  0  0
 17 30  1  0  0  0
 19 31  1  0  0  0
 20 22  1  0  0  0
 20 28  1  0  0  0
 21 23  1  0  0  0
 21 28  1  0  0  0
 22 30  1  0  0  0
 23 30  1  0  0  0
 24 11  1  0  0  0
 25 12  1  0  0  0
 26 13  1  0  0  0
 27 14  1  0  0  0
 35 18  1  0  0  0
 35 29  1  0  0  0
  1  2  2  0  0  0
  3  4  2  0  0  0
  5 16  2  0  0  0
  6 14  2  0  0  0
  7 11  2  0  0  0
  8 13  2  0  0  0
  9 18  2  0  0  0
 10 15  2  0  0  0
 12 17  2  0  0  0
 19 32  2  0  0  0
 35 33  2  0  0  0
 35 34  2  0  0  0
M  CHG  2  30   1  31  -1
M  END
> <rmsd>
0.526197791

$$$$
ZINC32961641


 35 38  0  0  0  0  0  0  0  0999 V2000
    8.7247    1.8647   -7.2469 C   0  0  0  0  0
    7.6231    2.4970   -7.8233 C   0  0  0  0  0
    1.0209    2.8842   -2.1902 C   0  0  0  0  0
   -0.0384    2.7671   -1.2904 C   0  0  0  0  0
    0.9954    0.8069   -0.3283 C   0  0  0  0  0
   -2.8523   -3.1012   -0.8024 C   0  0  0  0  0
    7.5309    1.6931   -5.1536 C   0  0  0  0  0
   -3.2075   -1.2127    0.6620 C   0  0  0  0  0
   -2.3843   -0.8629   -1.5823 C   0  0  0  0  0
    2.0548    0.9240   -1.2282 C   0  0  0  0  0
    8.6786    1.4627   -5.9120 C   0  0  0  0  0
    6.4754    2.7274   -7.0648 C   0  0  0  0  0
   -3.2450   -2.5882    0.4338 C   0  0  0  0  0
   -2.4218   -2.2384   -1.8105 C   0  0  0  0  0
    2.0675    1.9626   -2.1591 C   0  0  0  0  0
   -0.0512    1.7285   -0.3594 C   0  0  0  0  0
    6.4292    2.3255   -5.7299 C   0  0  0  0  0
   -2.7771   -0.3500   -0.3461 C   0  0  0  0  0
    3.1489   -0.0638   -1.1740 C   0  0  0  0  0
    4.2717    2.9176   -2.6628 C   0  0  0  0  0
    2.8430    2.0421   -4.5111 C   0  0  0  0  0
    5.5231    2.5097   -3.4327 C   0  0  0  0  0
    4.0931    1.6364   -5.2858 C   0  0  0  0  0
    9.8564    0.7866   -5.2959 C   0  0  0  0  0
    5.3090    3.4057   -7.7057 C   0  0  0  0  0
   -3.7051   -3.5106    1.5116 C   0  0  0  0  0
   -2.0016   -2.7870   -3.1322 C   0  0  0  0  0
    3.1212    2.0975   -3.0709 N   0  0  0  0  0
   -1.1358    1.6090    0.5613 N   0  0  0  0  0
    5.2163    2.5615   -4.9049 N   0  0  0  0  0
    3.0529   -1.1301   -1.8873 O   0  0  0  0  0
    4.1594    0.1763   -0.4151 O   0  0  0  0  0
   -3.6865    1.6728    0.9981 O   0  0  0  0  0
   -2.8584    2.0605   -1.3392 O   0  0  0  0  0
   -2.7296    1.3955   -0.0569 S   0  0  0  0  0
  1 11  1  0  0  0
  2 12  1  0  0  0
  3 15  1  0  0  0
  4 16  1  0  0  0
  5 10  1  0  0  0
  6 13  1  0  0  0
  7 17  1  0  0  0
  8 18  1  0  0  0
  9 14  1  0  0  0
 10 19  1  0  0  0
 15 28  1  0  0  0
 16 29  1  0  0  0
 17 30  1  0  0  0
 19 31  1  0  0  0
 20 22  1  0  0  0
 20 28  1  0  0  0
 21 23  1  0  0  0
 21 28  1  0  0  0
 22 30  1  0  0  0
 23 30  1  0  0  0
 24 11  1  0  0  0
 25 12  1  0  0  0
 26 13  1  0  0  0
 27 14  1  0  0  0
 35 18  1  0  0  0
 35 29  1  0  0  0
  1  2  2  0  0  0
  3  4  2  0  0  0
  5 16  2  0  0  0
  6 14  2  0  0  0
  7 11  2  0  0  0
  8 13  2  0  0  0
  9 18  2  0  0  0
 10 15  2  0  0  0
 12 17  2  0  0  0
 19 32  2  0  0  0
 35 33  2  0  0  0
 35 34  2  0  0  0
M  CHG  2  30   1  31  -1
M  END
> <rmsd>
0.706833243

$$$$
ZINC32961636


 35 38  0  0  0  0  0  0  0  0999 V2000
    8.9257    2.2171   -6.9676 C   0  0  0  0  0
   -2.8519   -3.1013   -0.8263 C   0  0  0  0  0
    7.7520    2.1764   -7.7201 C   0  0  0  0  0
   -2.7229   -2.6312    0.4805 C   0  0  0  0  0
    1.0097    2.8746   -2.2074 C   0  0  0  0  0
   -0.0470    2.7607   -1.3040 C   0  0  0  0  0
    0.9940    0.8090   -0.3322 C   0  0  0  0  0
    7.6220    2.4478   -4.9466 C   0  0  0  0  0
   -2.9048   -0.8269   -1.6394 C   0  0  0  0  0
    2.0507    0.9229   -1.2357 C   0  0  0  0  0
    8.8608    2.3528   -5.5809 C   0  0  0  0  0
   -2.9428   -2.1992   -1.8864 C   0  0  0  0  0
    6.5133    2.2715   -7.0860 C   0  0  0  0  0
   -2.6849   -1.2589    0.7274 C   0  0  0  0  0
    2.0585    1.9556   -2.1733 C   0  0  0  0  0
   -0.0548    1.7280   -0.3664 C   0  0  0  0  0
    6.4483    2.4072   -5.6992 C   0  0  0  0  0
   -2.7758   -0.3567   -0.3325 C   0  0  0  0  0
    3.1472   -0.0620   -1.1783 C   0  0  0  0  0
    3.8847    3.3364   -3.0577 C   0  0  0  0  0
    3.0269    1.4074   -4.3871 C   0  0  0  0  0
    5.2789    3.1186   -3.6357 C   0  0  0  0  0
    4.4197    1.1894   -4.9703 C   0  0  0  0  0
   10.1157    2.3960   -4.7763 C   0  0  0  0  0
   -3.0812   -2.7026   -3.2836 C   0  0  0  0  0
    5.2712    2.2245   -7.9144 C   0  0  0  0  0
   -2.5464   -0.7888    2.1386 C   0  0  0  0  0
    3.1093    2.0871   -3.0887 N   0  0  0  0  0
   -1.1366    1.6118    0.5580 N   0  0  0  0  0
    5.1390    2.5099   -5.0046 N   0  0  0  0  0
    3.0519   -1.1330   -1.8845 O   0  0  0  0  0
    4.1593    0.1853   -0.4237 O   0  0  0  0  0
   -3.6863    1.6724    1.0014 O   0  0  0  0  0
   -2.8654    2.0472   -1.3406 O   0  0  0  0  0
   -2.7316    1.3906   -0.0544 S   0  0  0  0  0
  1 11  1  0  0  0
  2 12  1  0  0  0
  3 13  1  0  0  0
  4 14  1  0  0  0
  5 15  1  0  0  0
  6 16  1  0  0  0
  7 10  1  0  0  0
  8 17  1  0  0  0
  9 18  1  0  0  0
 10 19  1  0  0  0
 15 28  1  0  0  0
 16 29  1  0  0  0
 17 30  1  0  0  0
 19 31  1  0  0  0
 20 22  1  0  0  0
 20 28  1  0  0  0
 21 23  1  0  0  0
 21 28  1  0  0  0
 22 30  1  0  0  0
 23 30  1  0  0  0
 24 11  1  0  0  0
 25 12  1  0  0  0
 26 13  1  0  0  0
 27 14  1  0  0  0
 35 18  1  0  0  0
 35 29  1  0  0  0
  1  3  2  0  0  0
  2  4  2  0  0  0
  5  6  2  0  0  0
  7 16  2  0  0  0
  8 11  2  0  0  0
  9 12  2  0  0  0
 10 15  2  0  0  0
 13 17  2  0  0  0
 14 18  2  0  0  0
 19 32  2  0  0  0
 35 33  2  0  0  0
 35 34  2  0  0  0
M  CHG  2  30   1  31  -1
M  END
> <rmsd>
0.709062517

$$$$
ZINC32961636


 35 38  0  0  0  0  0  0  0  0999 V2000
    8.2202    1.1753   -8.0412 C   0  0  0  0  0
   -3.3092   -3.1230   -0.7398 C   0  0  0  0  0
    6.9817    1.2186   -8.6814 C   0  0  0  0  0
   -3.0226   -2.6491    0.5403 C   0  0  0  0  0
    0.8583    2.5124   -2.5849 C   0  0  0  0  0
   -0.1150    2.4930   -1.5860 C   0  0  0  0  0
    0.8577    0.4768   -0.6772 C   0  0  0  0  0
    7.1328    1.5322   -5.9134 C   0  0  0  0  0
   -3.2612   -0.8613   -1.5879 C   0  0  0  0  0
    1.8310    0.4962   -1.6763 C   0  0  0  0  0
    8.2958    1.3321   -6.6572 C   0  0  0  0  0
   -3.4284   -2.2291   -1.8040 C   0  0  0  0  0
    5.8188    1.4188   -7.9377 C   0  0  0  0  0
   -2.8554   -1.2813    0.7564 C   0  0  0  0  0
    1.8312    1.5139   -2.6301 C   0  0  0  0  0
   -0.1153    1.4753   -0.6321 C   0  0  0  0  0
    5.8943    1.5756   -6.5537 C   0  0  0  0  0
   -2.9747   -0.3873   -0.3077 C   0  0  0  0  0
    2.8484   -0.5715   -1.7013 C   0  0  0  0  0
    3.6684    2.7356   -3.7054 C   0  0  0  0  0
    2.5432    0.8647   -4.9129 C   0  0  0  0  0
    4.9815    2.4014   -4.4051 C   0  0  0  0  0
    3.8543    0.5306   -5.6177 C   0  0  0  0  0
    9.6199    1.2856   -5.9727 C   0  0  0  0  0
   -3.7354   -2.7364   -3.1726 C   0  0  0  0  0
    4.5048    1.4603   -8.6471 C   0  0  0  0  0
   -2.5497   -0.8069    2.1396 C   0  0  0  0  0
    2.7990    1.5512   -3.6409 N   0  0  0  0  0
   -1.1118    1.4559    0.3901 N   0  0  0  0  0
    4.6675    1.7896   -5.7434 N   0  0  0  0  0
    2.6047   -1.6399   -2.3752 O   0  0  0  0  0
    3.9426   -0.3961   -1.0481 O   0  0  0  0  0
   -3.5965    1.7231    1.0654 O   0  0  0  0  0
   -2.9714    2.0040   -1.3490 O   0  0  0  0  0
   -2.7693    1.3543   -0.0683 S   0  0  0  0  0
  1 11  1  0  0  0
  2 12  1  0  0  0
  3 13  1  0  0  0
  4 14  1  0  0  0
  5 15  1  0  0  0
  6 16  1  0  0  0
  7 10  1  0  0  0
  8 17  1  0  0  0
  9 18  1  0  0  0
 10 19  1  0  0  0
 15 28  1  0  0  0
 16 29  1  0  0  0
 17 30  1  0  0  0
 19 31  1  0  0  0
 20 22  1  0  0  0
 20 28  1  0  0  0
 21 23  1  0  0  0
 21 28  1  0  0  0
 22 30  1  0  0  0
 23 30  1  0  0  0
 24 11  1  0  0  0
 25 12  1  0  0  0
 26 13  1  0  0  0
 27 14  1  0  0  0
 35 18  1  0  0  0
 35 29  1  0  0  0
  1  3  2  0  0  0
  2  4  2  0  0  0
  5  6  2  0  0  0
  7 16  2  0  0  0
  8 11  2  0  0  0
  9 12  2  0  0  0
 10 15  2  0  0  0
 13 17  2  0  0  0
 14 18  2  0  0  0
 19 32  2  0  0  0
 35 33  2  0  0  0
 35 34  2  0  0  0
M  CHG  2  30   1  31  -1
M  END
> <rmsd>
0.527813554

$$$$
ZINC32961638


 35 38  0  0  0  0  0  0  0  0999 V2000
    8.2197    1.1739   -8.0422 C   0  0  0  0  0
    6.9811    1.2170   -8.6823 C   0  0  0  0  0
   -3.4255   -2.2284   -1.8041 C   0  0  0  0  0
    0.8585    2.5124   -2.5853 C   0  0  0  0  0
   -0.1147    2.4932   -1.5862 C   0  0  0  0  0
   -3.2596   -0.8605   -1.5875 C   0  0  0  0  0
    0.8581    0.4772   -0.6772 C   0  0  0  0  0
   -3.0210   -2.6488    0.5404 C   0  0  0  0  0
    7.1326    1.5312   -5.9144 C   0  0  0  0  0
    1.8312    0.4963   -1.6764 C   0  0  0  0  0
   -3.3063   -3.1226   -0.7401 C   0  0  0  0  0
    8.2954    1.3309   -6.6583 C   0  0  0  0  0
    5.8183    1.4174   -7.9385 C   0  0  0  0  0
   -2.8549   -1.2810    0.7570 C   0  0  0  0  0
    1.8314    1.5138   -2.6304 C   0  0  0  0  0
   -0.1149    1.4757   -0.6322 C   0  0  0  0  0
    5.8940    1.5745   -6.5545 C   0  0  0  0  0
   -2.9743   -0.3868   -0.3069 C   0  0  0  0  0
    2.8486   -0.5714   -1.7013 C   0  0  0  0  0
    3.6685    2.7352   -3.7062 C   0  0  0  0  0
    2.5431    0.8641   -4.9132 C   0  0  0  0  0
    4.9815    2.4009   -4.4060 C   0  0  0  0  0
    3.8541    0.5298   -5.6181 C   0  0  0  0  0
   -3.4836   -4.5853   -0.9725 C   0  0  0  0  0
    9.6196    1.2846   -5.9740 C   0  0  0  0  0
    4.5042    1.4588   -8.6477 C   0  0  0  0  0
   -2.5500   -0.8063    2.1402 C   0  0  0  0  0
    2.7991    1.5508   -3.6413 N   0  0  0  0  0
   -1.1112    1.4566    0.3902 N   0  0  0  0  0
    4.6673    1.7888   -5.7442 N   0  0  0  0  0
    2.6048   -1.6399   -2.3749 O   0  0  0  0  0
    3.9429   -0.3959   -1.0483 O   0  0  0  0  0
   -3.5958    1.7240    1.0658 O   0  0  0  0  0
   -2.9710    2.0044   -1.3488 O   0  0  0  0  0
   -2.7688    1.3549   -0.0680 S   0  0  0  0  0
  1 12  1  0  0  0
  2 13  1  0  0  0
  3 11  1  0  0  0
  4 15  1  0  0  0
  5 16  1  0  0  0
  6 18  1  0  0  0
  7 10  1  0  0  0
  8 14  1  0  0  0
  9 17  1  0  0  0
 10 19  1  0  0  0
 15 28  1  0  0  0
 16 29  1  0  0  0
 17 30  1  0  0  0
 19 31  1  0  0  0
 20 22  1  0  0  0
 20 28  1  0  0  0
 21 23  1  0  0  0
 21 28  1  0  0  0
 22 30  1  0  0  0
 23 30  1  0  0  0
 24 11  1  0  0  0
 25 12  1  0  0  0
 26 13  1  0  0  0
 27 14  1  0  0  0
 35 18  1  0  0  0
 35 29  1  0  0  0
  1  2  2  0  0  0
  3  6  2  0  0  0
  4  5  2  0  0  0
  7 16  2  0  0  0
  8 11  2  0  0  0
  9 12  2  0  0  0
 10 15  2  0  0  0
 13 17  2  0  0  0
 14 18  2  0  0  0
 19 32  2  0  0  0
 35 33  2  0  0  0
 35 34  2  0  0  0
M  CHG  2  30   1  31  -1
M  END
> <rmsd>
0.52857244

$$$$
ZINC32961638


 35 38  0  0  0  0  0  0  0  0999 V2000
    8.9254    2.2160   -6.9688 C   0  0  0  0  0
    7.7515    2.1752   -7.7212 C   0  0  0  0  0
   -2.9399   -2.1982   -1.8862 C   0  0  0  0  0
    1.0099    2.8747   -2.2077 C   0  0  0  0  0
   -0.0467    2.7610   -1.3042 C   0  0  0  0  0
   -2.9033   -0.8259   -1.6389 C   0  0  0  0  0
    0.9944    0.8095   -0.3322 C   0  0  0  0  0
   -2.7212   -2.6308    0.4806 C   0  0  0  0  0
    7.6219    2.4471   -4.9477 C   0  0  0  0  0
    2.0509    0.9231   -1.2358 C   0  0  0  0  0
   -2.8489   -3.1007   -0.8265 C   0  0  0  0  0
    8.8606    2.3519   -5.5821 C   0  0  0  0  0
    6.5129    2.2705   -7.0869 C   0  0  0  0  0
   -2.6844   -1.2586    0.7280 C   0  0  0  0  0
    2.0587    1.9557   -2.1736 C   0  0  0  0  0
   -0.0544    1.7285   -0.3664 C   0  0  0  0  0
    6.4481    2.4064   -5.7001 C   0  0  0  0  0
   -2.7755   -0.3561   -0.3318 C   0  0  0  0  0
    3.1475   -0.0618   -1.1783 C   0  0  0  0  0
    3.8848    3.3363   -3.0585 C   0  0  0  0  0
    3.0268    1.4070   -4.3875 C   0  0  0  0  0
    5.2790    3.1182   -3.6366 C   0  0  0  0  0
    4.4195    1.1889   -4.9708 C   0  0  0  0  0
   -2.8879   -4.5680   -1.0917 C   0  0  0  0  0
   10.1156    2.3953   -4.7777 C   0  0  0  0  0
    5.2707    2.2234   -7.9152 C   0  0  0  0  0
   -2.5468   -0.7882    2.1391 C   0  0  0  0  0
    3.1094    2.0870   -3.0892 N   0  0  0  0  0
   -1.1361    1.6125    0.5581 N   0  0  0  0  0
    5.1388    2.5094   -5.0054 N   0  0  0  0  0
    3.0520   -1.1329   -1.8844 O   0  0  0  0  0
    4.1596    0.1856   -0.4239 O   0  0  0  0  0
   -3.6857    1.6734    1.0018 O   0  0  0  0  0
   -2.8651    2.0476   -1.3404 O   0  0  0  0  0
   -2.7312    1.3913   -0.0541 S   0  0  0  0  0
  1 12  1  0  0  0
  2 13  1  0  0  0
  3 11  1  0  0  0
  4 15  1  0  0  0
  5 16  1  0  0  0
  6 18  1  0  0  0
  7 10  1  0  0  0
  8 14  1  0  0  0
  9 17  1  0  0  0
 10 19  1  0  0  0
 15 28  1  0  0  0
 16 29  1  0  0  0
 17 30  1  0  0  0
 19 31  1  0  0  0
 20 22  1  0  0  0
 20 28  1  0  0  0
 21 23  1  0  0  0
 21 28  1  0  0  0
 22 30  1  0  0  0
 23 30  1  0  0  0
 24 11  1  0  0  0
 25 12  1  0  0  0
 26 13  1  0  0  0
 27 14  1  0  0  0
 35 18  1  0  0  0
 35 29  1  0  0  0
  1  2  2  0  0  0
  3  6  2  0  0  0
  4  5  2  0  0  0
  7 16  2  0  0  0
  8 11  2  0  0  0
  9 12  2  0  0  0
 10 15  2  0  0  0
 13 17  2  0  0  0
 14 18  2  0  0  0
 19 32  2  0  0  0
 35 33  2  0  0  0
 35 34  2  0  0  0
M  CHG  2  30   1  31  -1
M  END
> <rmsd>
0.709950149

$$$$
ZINC13302862


 35 39  0  0  0  0  0  0  0  0999 V2000
   -3.3258   -3.1138   -0.6976 C   0  0  0  0  0
   -3.9586   -2.1998   -1.5400 C   0  0  0  0  0
   -2.6064   -2.6610    0.4084 C   0  0  0  0  0
    2.5835    0.3916    1.4864 C   0  0  0  0  0
   -3.8719   -0.8328   -1.2765 C   0  0  0  0  0
   -2.5196   -1.2939    0.6717 C   0  0  0  0  0
    2.9108   -0.1805    0.2572 C   0  0  0  0  0
    0.7989    0.5624   -0.6510 C   0  0  0  0  0
    1.3638    1.0491    1.6471 C   0  0  0  0  0
   -3.1524   -0.3798   -0.1707 C   0  0  0  0  0
    0.4715    1.1344    0.5783 C   0  0  0  0  0
    2.0186   -0.0952   -0.8116 C   0  0  0  0  0
   -2.5820    3.3039    0.4219 C   0  0  0  0  0
   -2.2545    4.5959    0.5345 C   0  0  0  0  0
   -3.7815    2.8099    1.0948 C   0  0  0  0  0
   -3.0223    5.5718    1.3860 C   0  0  0  0  0
   -4.6612    3.7158    1.9086 C   0  0  0  0  0
    0.8280    7.0136   -1.0638 C   0  0  0  0  0
    1.1697    5.9779    0.0039 C   0  0  0  0  0
   -0.2852    6.5192   -1.9833 C   0  0  0  0  0
   -0.0645    5.5452    0.7854 C   0  0  0  0  0
   -1.5157    6.0854   -1.1961 C   0  0  0  0  0
   -3.8673    4.8982    2.4977 C   0  0  0  0  0
    1.0388    1.6516    2.9751 C   0  0  0  0  0
   -4.8508    5.9296    3.0783 C   0  0  0  0  0
   -2.9572    4.4072    3.6439 C   0  0  0  0  0
   -4.0407    1.5565    0.9031 N   0  0  0  0  0
   -3.0638    1.0172    0.0979 N   0  0  0  0  0
   -0.7658    1.7941    0.7232 N   0  0  0  0  0
    2.3522   -0.6778   -2.0628 N   0  0  0  0  0
   -1.1066    5.0483   -0.1827 N   0  0  0  0  0
    3.4545   -1.2648   -2.1855 O   0  0  0  0  0
    1.5357   -0.5903   -3.0114 O   0  0  0  0  0
   -1.4951    2.1213   -1.9347 O   0  0  0  0  0
   -1.8610    2.0141   -0.4808 P   0  0  0  0  0
  1  2  1  0  0  0
  3  6  1  0  0  0
  4  9  1  0  0  0
  5 10  1  0  0  0
  7 12  1  0  0  0
  8 11  1  0  0  0
 10 28  1  0  0  0
 11 29  1  0  0  0
 12 30  1  0  0  0
 13 15  1  0  0  0
 14 31  1  0  0  0
 16 14  1  0  0  0
 16 23  1  0  0  0
 17 15  1  0  0  0
 17 23  1  0  0  0
 18 19  1  0  0  0
 18 20  1  0  0  0
 19 21  1  0  0  0
 20 22  1  0  0  0
 21 31  1  0  0  0
 22 31  1  0  0  0
 23 25  1  0  0  0
 23 26  1  0  0  0
 24  9  1  0  0  0
 28 27  1  0  0  0
 30 32  1  0  0  0
 35 13  1  0  0  0
 35 28  1  0  0  0
 35 29  1  0  0  0
  1  3  2  0  0  0
  2  5  2  0  0  0
  4  7  2  0  0  0
  6 10  2  0  0  0
  8 12  2  0  0  0
  9 11  2  0  0  0
 13 14  2  0  0  0
 15 27  2  0  0  0
 30 33  2  0  0  0
 35 34  2  0  0  0
M  CHG  3  30   1  31   1  32  -1
M  END
> <rmsd>
0.461302251

$$$$
ZINC32961672


 29 31  0  0  0  0  0  0  0  0999 V2000
    8.3550    3.6457   -6.7342 C   0  0  0  0  0
    1.0773    2.9331   -2.0932 C   0  0  0  0  0
    0.0013    2.7905   -1.2171 C   0  0  0  0  0
   -2.7868   -1.0616   -1.6113 C   0  0  0  0  0
   -2.8391   -2.4656   -1.3742 C   0  0  0  0  0
    1.0043    0.7876   -0.3116 C   0  0  0  0  0
    2.0802    0.9302   -1.1877 C   0  0  0  0  0
    2.1167    2.0030   -2.0785 C   0  0  0  0  0
   -0.0351    1.7177   -0.3262 C   0  0  0  0  0
   -2.7753   -0.3389   -0.4386 C   0  0  0  0  0
   -2.8654   -2.7624   -0.0292 C   0  0  0  0  0
    3.1663   -0.0672   -1.1515 C   0  0  0  0  0
    4.0031    3.3804   -2.9074 C   0  0  0  0  0
    3.0920    1.5251   -4.2843 C   0  0  0  0  0
    5.3650    3.1457   -3.5657 C   0  0  0  0  0
    4.4834    1.3496   -4.8972 C   0  0  0  0  0
    7.0447    3.7899   -6.0828 C   0  0  0  0  0
    6.5150    2.4563   -5.5662 C   0  0  0  0  0
    9.3891    3.5341   -7.2486 N   0  0  0  0  0
    3.1869    2.1639   -2.9656 N   0  0  0  0  0
    5.2094    2.6253   -4.9294 N   0  0  0  0  0
   -1.1368    1.5721    0.5703 N   0  0  0  0  0
    3.0755   -1.1051   -1.9060 O   0  0  0  0  0
    4.1649    0.1366   -0.3667 O   0  0  0  0  0
   -3.6943    1.6390    0.9647 O   0  0  0  0  0
   -2.8222    2.1076   -1.3417 O   0  0  0  0  0
   -2.8274   -1.3519    0.9409 S   0  0  0  0  0
   -2.7208    1.3941   -0.0831 S   0  0  0  0  0
   -2.9371   -4.5225    0.6810 Br  0  0  0  0  0
  2  3  1  0  0  0
  4  5  1  0  0  0
  6  9  1  0  0  0
  7  8  1  0  0  0
  7 12  1  0  0  0
  8 20  1  0  0  0
  9 22  1  0  0  0
 10 27  1  0  0  0
 11 27  1  0  0  0
 11 29  1  0  0  0
 12 23  1  0  0  0
 13 15  1  0  0  0
 13 20  1  0  0  0
 14 16  1  0  0  0
 14 20  1  0  0  0
 15 21  1  0  0  0
 16 21  1  0  0  0
 17  1  1  0  0  0
 17 18  1  0  0  0
 18 21  1  0  0  0
 28 10  1  0  0  0
 28 22  1  0  0  0
  2  8  2  0  0  0
  3  9  2  0  0  0
  4 10  2  0  0  0
  5 11  2  0  0  0
  6  7  2  0  0  0
 12 24  2  0  0  0
 28 25  2  0  0  0
 28 26  2  0  0  0
  1 19  3  0  0  0
M  CHG  1  23  -1
M  END
> <rmsd>
0.678268552

$$$$
ZINC32961672


 29 31  0  0  0  0  0  0  0  0999 V2000
    7.7451    2.7078   -7.8260 C   0  0  0  0  0
    0.9242    2.5890   -2.4900 C   0  0  0  0  0
   -0.0684    2.5359   -1.5114 C   0  0  0  0  0
   -3.1620   -1.0964   -1.5725 C   0  0  0  0  0
   -3.2957   -2.4903   -1.3094 C   0  0  0  0  0
    0.8658    0.4703   -0.6761 C   0  0  0  0  0
    1.8584    0.5234   -1.6546 C   0  0  0  0  0
    1.8876    1.5828   -2.5616 C   0  0  0  0  0
   -0.0976    1.4765   -0.6045 C   0  0  0  0  0
   -2.9817   -0.3669   -0.4180 C   0  0  0  0  0
   -3.2122   -2.7731    0.0363 C   0  0  0  0  0
    2.8651   -0.5534   -1.7084 C   0  0  0  0  0
    3.7814    2.8059   -3.5912 C   0  0  0  0  0
    2.6036    1.0137   -4.8438 C   0  0  0  0  0
    5.0509    2.4629   -4.3747 C   0  0  0  0  0
    3.9112    0.7279   -5.5860 C   0  0  0  0  0
    6.5194    2.9566   -7.0528 C   0  0  0  0  0
    5.9446    1.6715   -6.4663 C   0  0  0  0  0
    8.7125    2.5136   -8.4365 N   0  0  0  0  0
    2.8748    1.6545   -3.5508 N   0  0  0  0  0
    4.7240    1.9444   -5.7085 N   0  0  0  0  0
   -1.1139    1.4224    0.3969 N   0  0  0  0  0
    2.6235   -1.5876   -2.4341 O   0  0  0  0  0
    3.9482   -0.4195   -1.0275 O   0  0  0  0  0
   -3.6083    1.6868    1.0366 O   0  0  0  0  0
   -2.9336    2.0685   -1.3506 O   0  0  0  0  0
   -2.9740   -1.3615    0.9759 S   0  0  0  0  0
   -2.7632    1.3599   -0.0968 S   0  0  0  0  0
   -3.3455   -4.5166    0.7777 Br  0  0  0  0  0
  2  3  1  0  0  0
  4  5  1  0  0  0
  6  9  1  0  0  0
  7  8  1  0  0  0
  7 12  1  0  0  0
  8 20  1  0  0  0
  9 22  1  0  0  0
 10 27  1  0  0  0
 11 27  1  0  0  0
 11 29  1  0  0  0
 12 23  1  0  0  0
 13 15  1  0  0  0
 13 20  1  0  0  0
 14 16  1  0  0  0
 14 20  1  0  0  0
 15 21  1  0  0  0
 16 21  1  0  0  0
 17  1  1  0  0  0
 17 18  1  0  0  0
 18 21  1  0  0  0
 28 10  1  0  0  0
 28 22  1  0  0  0
  2  8  2  0  0  0
  3  9  2  0  0  0
  4 10  2  0  0  0
  5 11  2  0  0  0
  6  7  2  0  0  0
 12 24  2  0  0  0
 28 25  2  0  0  0
 28 26  2  0  0  0
  1 19  3  0  0  0
M  CHG  1  23  -1
M  END
> <rmsd>
0.503744364

$$$$
ZINC55009890


 35 38  0  0  0  0  0  0  0  0999 V2000
    2.9583    2.3477    0.8142 C   0  0  0  0  0
    3.0955    3.0572   -0.3951 C   0  0  0  0  0
    1.7294    1.8019    1.1921 C   0  0  0  0  0
    2.0068    3.2370   -1.2548 C   0  0  0  0  0
   -4.2810   -1.3687    0.1240 C   0  0  0  0  0
   -3.7411   -2.6011   -0.3152 C   0  0  0  0  0
    0.6672    1.9873    0.3361 C   0  0  0  0  0
    0.7965    2.6960   -0.8765 C   0  0  0  0  0
    1.4783   -3.2648    0.6137 C   0  0  0  0  0
   -3.3467   -0.4091   -0.1894 C   0  0  0  0  0
    0.1916   -3.6680    0.3530 C   0  0  0  0  0
   -2.5154   -2.3067   -0.8658 C   0  0  0  0  0
    1.7906   -2.3825   -0.4380 C   0  0  0  0  0
   -1.3727    1.9969   -0.6859 C   0  0  0  0  0
   -3.3371    1.0679    0.0203 C   0  0  0  0  0
   -0.7091   -4.5869    1.0754 C   0  0  0  0  0
   -2.8136   -0.2362   -4.2470 C   0  0  0  0  0
    0.1702    0.4227   -5.9968 C   0  0  0  0  0
   -1.4701   -3.1289   -1.4916 C   0  0  0  0  0
   -0.7006    3.3351   -2.7643 C   0  0  0  0  0
   -2.2194    1.1488   -4.3809 C   0  0  0  0  0
    0.0226    0.0758   -4.5315 C   0  0  0  0  0
   -0.1687    2.4758   -3.8957 C   0  0  0  0  0
    0.7834   -2.2338   -1.3025 N   0  0  0  0  0
   -2.6288    1.7825   -0.9179 N   0  0  0  0  0
   -0.1742   -3.0281   -0.7946 N   0  0  0  0  0
   -0.6609    1.5652    0.4413 N   0  0  0  0  0
   -0.4567    2.6968   -1.4954 N   0  0  0  0  0
    2.9507   -1.6487   -0.7294 N   0  0  0  0  0
   -0.8066    1.1370   -3.8506 N   0  0  0  0  0
    2.9828   -0.9121   -1.7548 O   0  0  0  0  0
   -3.9410    1.5313    0.9841 O   0  0  0  0  0
    3.9513   -1.7314    0.0368 O   0  0  0  0  0
   -2.2675   -0.9725   -0.7930 O   0  0  0  0  0
    2.4845   -3.7107    1.9001 Cl  0  0  0  0  0
  1  2  1  0  0  0
  3  7  1  0  0  0
  4  8  1  0  0  0
  5  6  1  0  0  0
  7 27  1  0  0  0
  8 28  1  0  0  0
  9 13  1  0  0  0
  9 35  1  0  0  0
 10 15  1  0  0  0
 10 34  1  0  0  0
 11 26  1  0  0  0
 12 34  1  0  0  0
 13 29  1  0  0  0
 14 27  1  0  0  0
 14 28  1  0  0  0
 15 25  1  0  0  0
 16 11  1  0  0  0
 17 21  1  0  0  0
 18 22  1  0  0  0
 19 12  1  0  0  0
 19 26  1  0  0  0
 20 23  1  0  0  0
 20 28  1  0  0  0
 21 30  1  0  0  0
 22 30  1  0  0  0
 23 30  1  0  0  0
 26 24  1  0  0  0
 29 31  1  0  0  0
  1  3  2  0  0  0
  2  4  2  0  0  0
  5 10  2  0  0  0
  6 12  2  0  0  0
  7  8  2  0  0  0
  9 11  2  0  0  0
 13 24  2  0  0  0
 14 25  2  0  0  0
 15 32  2  0  0  0
 29 33  2  0  0  0
M  CHG  3  29   1  30   1  31  -1
M  END
> <rmsd>
0.443555444

$$$$
ZINC03029983


 34 36  0  0  0  0  0  0  0  0999 V2000
    1.0758    3.0300   -1.8840 C   0  0  0  0  0
    1.2173    4.3133    0.1580 C   0  0  0  0  0
    1.0890   -1.4218   -3.5617 C   0  0  0  0  0
    1.4880   -3.0765   -1.8472 C   0  0  0  0  0
    0.1502    2.1765   -1.2836 C   0  0  0  0  0
    0.2916    3.4599    0.7585 C   0  0  0  0  0
   -0.1199   -2.0414   -3.8784 C   0  0  0  0  0
    0.2790   -3.6961   -2.1638 C   0  0  0  0  0
   -3.0532   -2.6118    0.6696 C   0  0  0  0  0
   -2.9941   -0.9023   -1.5342 C   0  0  0  0  0
    1.6094    4.0984   -1.1632 C   0  0  0  0  0
    1.8929   -1.9395   -2.5462 C   0  0  0  0  0
   -2.9355   -1.2348    0.8581 C   0  0  0  0  0
   -3.1413   -3.1341   -0.6209 C   0  0  0  0  0
   -0.2418    2.3915    0.0376 C   0  0  0  0  0
   -0.5249   -3.1785   -3.1795 C   0  0  0  0  0
   -2.9060   -0.3801   -0.2438 C   0  0  0  0  0
   -3.1118   -2.2794   -1.7227 C   0  0  0  0  0
    2.5856    4.9995   -1.7970 C   0  0  0  0  0
    3.1683   -1.2851   -2.2114 C   0  0  0  0  0
   -2.8441   -0.7074    2.2528 C   0  0  0  0  0
   -3.2664   -4.6134   -0.7884 C   0  0  0  0  0
   -1.1880    1.5171    0.6527 N   0  0  0  0  0
   -1.7706   -3.8183   -3.5070 N   0  0  0  0  0
    3.0626    5.9785   -1.1095 O   0  0  0  0  0
    3.8916   -1.7831   -1.2692 O   0  0  0  0  0
    2.9301    4.7796   -3.0182 O   0  0  0  0  0
    3.5188   -0.2363   -2.8713 O   0  0  0  0  0
   -3.7483    1.7662    0.9437 O   0  0  0  0  0
   -2.7756    1.9732   -1.3608 O   0  0  0  0  0
   -3.1370   -1.7658   -4.2647 O   0  0  0  0  0
   -4.3721   -3.7879   -3.4370 O   0  0  0  0  0
   -2.7582    1.3720   -0.0412 S   0  0  0  0  0
   -3.2199   -2.9009   -3.3551 S   0  0  0  0  0
  1 11  1  0  0  0
  2  6  1  0  0  0
  3 12  1  0  0  0
  4  8  1  0  0  0
  5 15  1  0  0  0
  7 16  1  0  0  0
  9 13  1  0  0  0
 10 17  1  0  0  0
 11 19  1  0  0  0
 12 20  1  0  0  0
 14 18  1  0  0  0
 15 23  1  0  0  0
 16 24  1  0  0  0
 19 25  1  0  0  0
 20 26  1  0  0  0
 21 13  1  0  0  0
 22 14  1  0  0  0
 33 17  1  0  0  0
 33 23  1  0  0  0
 34 18  1  0  0  0
 34 24  1  0  0  0
  1  5  2  0  0  0
  2 11  2  0  0  0
  3  7  2  0  0  0
  4 12  2  0  0  0
  6 15  2  0  0  0
  8 16  2  0  0  0
  9 14  2  0  0  0
 10 18  2  0  0  0
 13 17  2  0  0  0
 19 27  2  0  0  0
 20 28  2  0  0  0
 33 29  2  0  0  0
 33 30  2  0  0  0
 34 31  2  0  0  0
 34 32  2  0  0  0
M  CHG  2  25  -1  26  -1
M  END
> <rmsd>
0.541127026

$$$$
ZINC15940641


 34 36  0  0  0  0  0  0  0  0999 V2000
    2.3763   -2.8514    1.2313 C   0  0  0  0  0
    3.0936   -2.1005    2.1625 C   0  0  0  0  0
    1.2660    3.0914   -1.9343 C   0  0  0  0  0
    2.4492   -2.5344   -0.1252 C   0  0  0  0  0
    3.8836   -1.0325    1.7375 C   0  0  0  0  0
    1.8062    1.9339   -2.4949 C   0  0  0  0  0
   -2.9777   -3.0744   -0.8703 C   0  0  0  0  0
   -3.0881   -0.7863   -1.6378 C   0  0  0  0  0
    0.3698    0.5860   -1.0960 C   0  0  0  0  0
   -3.1397   -2.1541   -1.9059 C   0  0  0  0  0
    0.2778    2.9961   -0.9545 C   0  0  0  0  0
   -2.7642   -2.6268    0.4334 C   0  0  0  0  0
   -2.7126   -1.2590    0.7015 C   0  0  0  0  0
    3.2394   -1.4663   -0.5502 C   0  0  0  0  0
   -0.1704    1.7435   -0.5354 C   0  0  0  0  0
    3.9566   -0.7154    0.3811 C   0  0  0  0  0
    1.3581    0.6813   -2.0758 C   0  0  0  0  0
   -2.8746   -0.3386   -0.3340 C   0  0  0  0  0
   -3.3648   -2.6264   -3.2816 C   0  0  0  0  0
   -0.2839    4.2512   -0.3701 C   0  0  0  0  0
   -2.5942   -3.6337    1.5237 C   0  0  0  0  0
   -2.4838   -0.7884    2.1032 C   0  0  0  0  0
    6.0992    0.0488   -0.3126 C   0  0  0  0  0
    3.2977   -1.1729   -1.8721 N   0  0  0  0  0
   -1.1880    1.6244    0.4739 N   0  0  0  0  0
   -3.5116   -1.7561   -4.2195 O   0  0  0  0  0
   -3.4079   -3.8945   -3.5023 O   0  0  0  0  0
    0.9361   -1.7504   -2.7336 O   0  0  0  0  0
    2.3943   -0.3785   -4.1542 O   0  0  0  0  0
   -3.6923    1.6677    1.0913 O   0  0  0  0  0
   -3.0403    2.0797   -1.2971 O   0  0  0  0  0
    4.7384    0.3358   -0.0011 O   0  0  0  0  0
    2.0345   -0.7673   -2.7780 S   0  0  0  0  0
   -2.8150    1.3855   -0.0368 S   0  0  0  0  0
  1  2  1  0  0  0
  3 11  1  0  0  0
  4 14  1  0  0  0
  5 16  1  0  0  0
  6 17  1  0  0  0
  7 10  1  0  0  0
  8 18  1  0  0  0
  9 15  1  0  0  0
 10 19  1  0  0  0
 12 13  1  0  0  0
 14 24  1  0  0  0
 15 25  1  0  0  0
 16 32  1  0  0  0
 19 26  1  0  0  0
 20 11  1  0  0  0
 21 12  1  0  0  0
 22 13  1  0  0  0
 23 32  1  0  0  0
 33 17  1  0  0  0
 33 24  1  0  0  0
 34 18  1  0  0  0
 34 25  1  0  0  0
  1  4  2  0  0  0
  2  5  2  0  0  0
  3  6  2  0  0  0
  7 12  2  0  0  0
  8 10  2  0  0  0
  9 17  2  0  0  0
 11 15  2  0  0  0
 13 18  2  0  0  0
 14 16  2  0  0  0
 19 27  2  0  0  0
 33 28  2  0  0  0
 33 29  2  0  0  0
 34 30  2  0  0  0
 34 31  2  0  0  0
M  CHG  2  24  -1  26  -1
M  END
> <rmsd>
0.634840965

$$$$
ZINC15940641


 34 36  0  0  0  0  0  0  0  0999 V2000
    6.2771    0.8104   -2.5676 C   0  0  0  0  0
    6.6304    1.2189   -1.2816 C   0  0  0  0  0
    1.2659    3.0908   -1.9345 C   0  0  0  0  0
    5.1542    0.0055   -2.7599 C   0  0  0  0  0
    5.8609    0.8225   -0.1878 C   0  0  0  0  0
    1.8061    1.9333   -2.4950 C   0  0  0  0  0
   -2.9778   -3.0749   -0.8705 C   0  0  0  0  0
   -3.0882   -0.7868   -1.6380 C   0  0  0  0  0
    0.3696    0.5855   -1.0961 C   0  0  0  0  0
   -3.1398   -2.1547   -1.9061 C   0  0  0  0  0
    0.2776    2.9955   -0.9546 C   0  0  0  0  0
   -2.7643   -2.6274    0.4333 C   0  0  0  0  0
   -2.7127   -1.2595    0.7014 C   0  0  0  0  0
    4.3847   -0.3911   -1.6661 C   0  0  0  0  0
   -0.1705    1.7429   -0.5355 C   0  0  0  0  0
    4.7381    0.0175   -0.3800 C   0  0  0  0  0
    1.3580    0.6807   -2.0759 C   0  0  0  0  0
   -2.8747   -0.3392   -0.3342 C   0  0  0  0  0
   -3.3649   -2.6269   -3.2817 C   0  0  0  0  0
   -0.2841    4.2506   -0.3703 C   0  0  0  0  0
   -2.5943   -3.6343    1.5236 C   0  0  0  0  0
   -2.4840   -0.7889    2.1030 C   0  0  0  0  0
    4.3834   -1.5654    1.3590 C   0  0  0  0  0
    3.2975   -1.1734   -1.8722 N   0  0  0  0  0
   -1.1881    1.6239    0.4738 N   0  0  0  0  0
   -3.5117   -1.7566   -4.2196 O   0  0  0  0  0
   -3.4081   -3.8951   -3.5025 O   0  0  0  0  0
    0.9359   -1.7509   -2.7338 O   0  0  0  0  0
    2.3942   -0.3791   -4.1544 O   0  0  0  0  0
   -3.6924    1.6671    1.0912 O   0  0  0  0  0
   -3.0404    2.0791   -1.2972 O   0  0  0  0  0
    4.0074   -0.3529    0.7113 O   0  0  0  0  0
    2.0344   -0.7679   -2.7781 S   0  0  0  0  0
   -2.8151    1.3849   -0.0369 S   0  0  0  0  0
  1  2  1  0  0  0
  3 11  1  0  0  0
  4 14  1  0  0  0
  5 16  1  0  0  0
  6 17  1  0  0  0
  7 10  1  0  0  0
  8 18  1  0  0  0
  9 15  1  0  0  0
 10 19  1  0  0  0
 12 13  1  0  0  0
 14 24  1  0  0  0
 15 25  1  0  0  0
 16 32  1  0  0  0
 19 26  1  0  0  0
 20 11  1  0  0  0
 21 12  1  0  0  0
 22 13  1  0  0  0
 23 32  1  0  0  0
 33 17  1  0  0  0
 33 24  1  0  0  0
 34 18  1  0  0  0
 34 25  1  0  0  0
  1  4  2  0  0  0
  2  5  2  0  0  0
  3  6  2  0  0  0
  7 12  2  0  0  0
  8 10  2  0  0  0
  9 17  2  0  0  0
 11 15  2  0  0  0
 13 18  2  0  0  0
 14 16  2  0  0  0
 19 27  2  0  0  0
 33 28  2  0  0  0
 33 29  2  0  0  0
 34 30  2  0  0  0
 34 31  2  0  0  0
M  CHG  2  24  -1  26  -1
M  END
> <rmsd>
0.634840846

$$$$
ZINC01047134


 36 39  0  0  0  0  0  0  0  0999 V2000
   -3.2025    0.3553   -5.3829 C   0  0  0  0  0
   -3.5292   -5.5745   -3.8952 C   0  0  0  0  0
   -1.9682    0.0235   -4.8245 C   0  0  0  0  0
   -4.3707    0.1973   -4.6371 C   0  0  0  0  0
   -2.4194   -4.7325   -3.9656 C   0  0  0  0  0
   -4.4888   -5.3820   -2.9014 C   0  0  0  0  0
    1.6033    2.5616   -1.5298 C   0  0  0  0  0
   -1.9020   -0.4668   -3.5202 C   0  0  0  0  0
   -4.3045   -0.2929   -3.3330 C   0  0  0  0  0
   -2.2692   -3.6979   -3.0421 C   0  0  0  0  0
   -4.3387   -4.3474   -1.9779 C   0  0  0  0  0
    0.4686    2.6034   -0.7197 C   0  0  0  0  0
    2.2529    1.3486   -1.7582 C   0  0  0  0  0
    0.6332    0.2190   -0.3662 C   0  0  0  0  0
   -3.0701   -0.6250   -2.7744 C   0  0  0  0  0
   -2.8501   -1.3884    0.8062 C   0  0  0  0  0
   -3.2288   -3.5054   -2.0483 C   0  0  0  0  0
   -0.0165    1.4321   -0.1379 C   0  0  0  0  0
    1.7679    0.1774   -1.1764 C   0  0  0  0  0
   -2.8597   -0.4382   -0.2446 C   0  0  0  0  0
   -3.0021   -1.1324   -1.4256 C   0  0  0  0  0
   -2.9867   -2.6344    0.2352 C   0  0  0  0  0
   -2.7221   -1.1493    2.2165 C   0  0  0  0  0
   -3.0368   -3.9692    0.8754 C   0  0  0  0  0
   -4.1016   -3.1024    5.0210 C   0  0  0  0  0
   -3.3234   -1.9664    4.3921 C   0  0  0  0  0
   -3.0779   -2.4667   -1.1218 N   0  0  0  0  0
   -1.1862    1.4756    0.6976 N   0  0  0  0  0
    2.4289   -1.0572   -1.4101 N   0  0  0  0  0
    3.4474   -1.0725   -2.1430 O   0  0  0  0  0
   -2.0963   -0.1989    2.7303 O   0  0  0  0  0
    1.9771   -2.0996   -0.8773 O   0  0  0  0  0
   -3.7476    1.7272    0.8729 O   0  0  0  0  0
   -2.6795    1.8972   -1.3920 O   0  0  0  0  0
   -3.3767   -2.0970    2.9675 O   0  0  0  0  0
   -2.7228    1.2562   -0.0697 S   0  0  0  0  0
  1  3  1  0  0  0
  2  5  1  0  0  0
  4  9  1  0  0  0
  6 11  1  0  0  0
  7 13  1  0  0  0
  8 15  1  0  0  0
 10 17  1  0  0  0
 12 18  1  0  0  0
 14 19  1  0  0  0
 15 21  1  0  0  0
 16 20  1  0  0  0
 16 23  1  0  0  0
 17 27  1  0  0  0
 18 28  1  0  0  0
 19 29  1  0  0  0
 21 27  1  0  0  0
 22 27  1  0  0  0
 23 35  1  0  0  0
 24 22  1  0  0  0
 25 26  1  0  0  0
 26 35  1  0  0  0
 29 30  1  0  0  0
 36 20  1  0  0  0
 36 28  1  0  0  0
  1  4  2  0  0  0
  2  6  2  0  0  0
  3  8  2  0  0  0
  5 10  2  0  0  0
  7 12  2  0  0  0
  9 15  2  0  0  0
 11 17  2  0  0  0
 13 19  2  0  0  0
 14 18  2  0  0  0
 16 22  2  0  0  0
 20 21  2  0  0  0
 23 31  2  0  0  0
 29 32  2  0  0  0
 36 33  2  0  0  0
 36 34  2  0  0  0
M  CHG  2  29   1  30  -1
M  END
> <rmsd>
0.561927974

$$$$
ZINC04215234


 33 36  0  0  0  0  0  0  0  0999 V2000
   -4.4876   -1.1671    0.4467 C   0  0  0  0  0
    6.1442    1.5227   -2.2322 C   0  0  0  0  0
   -3.3988   -0.4813   -0.0497 C   0  0  0  0  0
    5.9153   -0.5103   -0.9606 C   0  0  0  0  0
    6.0555   -0.6667   -2.3237 C   0  0  0  0  0
   -2.9955   -2.4387   -0.9531 C   0  0  0  0  0
    3.6125   -0.6383    0.8785 C   0  0  0  0  0
    3.0715   -0.1798   -0.2747 C   0  0  0  0  0
    1.1686    1.2684   -1.1035 C   0  0  0  0  0
    5.7550   -1.5175    0.1025 C   0  0  0  0  0
    4.7154   -1.5785    0.9359 C   0  0  0  0  0
   -3.1219    0.9516    0.2388 C   0  0  0  0  0
    3.5099   -0.7403   -1.6270 C   0  0  0  0  0
   -1.8983    1.5918   -0.3622 C   0  0  0  0  0
    3.1210   -0.2369    2.2671 C   0  0  0  0  0
    0.5012    2.0101    0.0914 C   0  0  0  0  0
    1.7376    1.5568    0.9001 C   0  0  0  0  0
    6.0771   -1.9486   -3.0601 C   0  0  0  0  0
   -4.3899    3.6455    1.9902 C   0  0  0  0  0
    6.1865    0.4980   -3.0545 N   0  0  0  0  0
   -2.5419   -1.2089   -0.8522 N   0  0  0  0  0
   -3.9152    1.6428    1.0007 N   0  0  0  0  0
    2.0857    0.7548   -0.2568 N   0  0  0  0  0
   -2.3909   -3.4216   -1.6715 N   0  0  0  0  0
   -0.8089    1.4719    0.4548 N   0  0  0  0  0
    3.8835   -1.9402   -1.5979 O   0  0  0  0  0
    0.9385    1.1222   -2.2810 O   0  0  0  0  0
    3.4352    0.0771   -2.5791 O   0  0  0  0  0
   -2.0031    2.1193   -1.4579 O   0  0  0  0  0
   -3.4722    2.9645    1.1486 O   0  0  0  0  0
   -4.4479   -2.7891   -0.1090 S   0  0  0  0  0
    5.9494    1.1585   -0.5666 S   0  0  0  0  0
    1.4274    0.4506    2.2944 S   0  0  0  0  0
  1 31  1  0  0  0
  2 32  1  0  0  0
  3 12  1  0  0  0
  3 21  1  0  0  0
  4 10  1  0  0  0
  4 32  1  0  0  0
  5 20  1  0  0  0
  6 24  1  0  0  0
  6 31  1  0  0  0
  7 11  1  0  0  0
  8 13  1  0  0  0
  8 23  1  0  0  0
  9 23  1  0  0  0
 12 14  1  0  0  0
 13 26  1  0  0  0
 14 25  1  0  0  0
 15  7  1  0  0  0
 15 33  1  0  0  0
 16  9  1  0  0  0
 16 17  1  0  0  0
 16 25  1  0  0  0
 17 23  1  0  0  0
 17 33  1  0  0  0
 18  5  1  0  0  0
 19 30  1  0  0  0
 22 30  1  0  0  0
  1  3  2  0  0  0
  2 20  2  0  0  0
  4  5  2  0  0  0
  6 21  2  0  0  0
  7  8  2  0  0  0
  9 27  2  0  0  0
 10 11  2  0  0  0
 12 22  2  0  0  0
 13 28  2  0  0  0
 14 29  2  0  0  0
M  CHG  1  26  -1
M  END
> <rmsd>
0.102180429

$$$$
ZINC04215234


 33 36  0  0  0  0  0  0  0  0999 V2000
   -4.3792   -1.2384    0.3869 C   0  0  0  0  0
    5.8855    2.4616   -2.5103 C   0  0  0  0  0
   -3.3692   -0.4360   -0.1013 C   0  0  0  0  0
    5.8695    0.3338   -1.3811 C   0  0  0  0  0
    5.9593    0.2836   -2.7565 C   0  0  0  0  0
   -2.8596   -2.2883   -1.1594 C   0  0  0  0  0
    3.6685   -0.1026    0.5338 C   0  0  0  0  0
    3.0427    0.3904   -0.5607 C   0  0  0  0  0
    0.9997    1.7376   -1.2062 C   0  0  0  0  0
    5.8344   -0.7540   -0.3883 C   0  0  0  0  0
    4.8411   -0.9544    0.4791 C   0  0  0  0  0
   -3.1893    0.9909    0.2790 C   0  0  0  0  0
    3.4608   -0.0388   -1.9664 C   0  0  0  0  0
   -2.0462    1.7657   -0.3221 C   0  0  0  0  0
    3.2112    0.1618    1.9662 C   0  0  0  0  0
    0.3326    2.3399    0.0648 C   0  0  0  0  0
    1.6352    1.9308    0.7889 C   0  0  0  0  0
    6.0449   -0.9386   -3.5841 C   0  0  0  0  0
   -4.5778    3.4486    2.2700 C   0  0  0  0  0
    5.9682    1.5027   -3.4056 N   0  0  0  0  0
   -2.4967   -1.0365   -0.9879 N   0  0  0  0  0
   -3.9975    1.5629    1.1198 N   0  0  0  0  0
    1.9905    1.2408   -0.4360 N   0  0  0  0  0
   -2.2152   -3.1684   -1.9707 N   0  0  0  0  0
   -0.9151    1.6760    0.4400 N   0  0  0  0  0
    3.9254   -1.2046   -2.0392 O   0  0  0  0  0
    0.7283    1.6555   -2.3811 O   0  0  0  0  0
    3.2812    0.8340   -2.8531 O   0  0  0  0  0
   -2.2403    2.3577   -1.3717 O   0  0  0  0  0
   -3.6500    2.9020    1.3455 O   0  0  0  0  0
   -4.2416   -2.8099   -0.2859 S   0  0  0  0  0
    5.7944    1.9688   -0.8689 S   0  0  0  0  0
    1.4733    0.7098    2.1106 S   0  0  0  0  0
  1 31  1  0  0  0
  2 32  1  0  0  0
  3 12  1  0  0  0
  3 21  1  0  0  0
  4 10  1  0  0  0
  4 32  1  0  0  0
  5 20  1  0  0  0
  6 24  1  0  0  0
  6 31  1  0  0  0
  7 11  1  0  0  0
  8 13  1  0  0  0
  8 23  1  0  0  0
  9 23  1  0  0  0
 12 14  1  0  0  0
 13 26  1  0  0  0
 14 25  1  0  0  0
 15  7  1  0  0  0
 15 33  1  0  0  0
 16  9  1  0  0  0
 16 17  1  0  0  0
 16 25  1  0  0  0
 17 23  1  0  0  0
 17 33  1  0  0  0
 18  5  1  0  0  0
 19 30  1  0  0  0
 22 30  1  0  0  0
  1  3  2  0  0  0
  2 20  2  0  0  0
  4  5  2  0  0  0
  6 21  2  0  0  0
  7  8  2  0  0  0
  9 27  2  0  0  0
 10 11  2  0  0  0
 12 22  2  0  0  0
 13 28  2  0  0  0
 14 29  2  0  0  0
M  CHG  1  26  -1
M  END
> <rmsd>
0.330091059

$$$$
ZINC04215234


 33 36  0  0  0  0  0  0  0  0999 V2000
   -2.5255   -1.0948   -1.0083 C   0  0  0  0  0
    5.9084    2.4897   -2.4740 C   0  0  0  0  0
   -3.3538   -0.4337   -0.1257 C   0  0  0  0  0
    5.8893    0.3526   -1.3626 C   0  0  0  0  0
    5.9847    0.3139   -2.7380 C   0  0  0  0  0
   -4.3425   -2.3913   -0.1028 C   0  0  0  0  0
    3.6812   -0.1010    0.5400 C   0  0  0  0  0
    3.0593    0.4007   -0.5529 C   0  0  0  0  0
    1.0179    1.7518   -1.1953 C   0  0  0  0  0
    5.8511   -0.7434   -0.3789 C   0  0  0  0  0
    4.8545   -0.9516    0.4828 C   0  0  0  0  0
   -3.1763    0.9902    0.2671 C   0  0  0  0  0
    3.4832   -0.0167   -1.9605 C   0  0  0  0  0
   -2.0314    1.7707   -0.3231 C   0  0  0  0  0
    3.2180    0.1512    1.9727 C   0  0  0  0  0
    0.3454    2.3431    0.0780 C   0  0  0  0  0
    1.6454    1.9289    0.8038 C   0  0  0  0  0
    6.0743   -0.9014   -3.5753 C   0  0  0  0  0
   -4.5743    3.4304    2.2727 C   0  0  0  0  0
    5.9953    1.5383   -3.3769 N   0  0  0  0  0
   -4.3965   -1.1754    0.3942 N   0  0  0  0  0
   -3.9882    1.5547    1.1094 N   0  0  0  0  0
    2.0061    1.2493   -0.4253 N   0  0  0  0  0
   -5.2230   -3.3821    0.1990 N   0  0  0  0  0
   -0.9032    1.6754    0.4427 N   0  0  0  0  0
    3.9489   -1.1815   -2.0410 O   0  0  0  0  0
    0.7513    1.6792   -2.3720 O   0  0  0  0  0
    3.3066    0.8633   -2.8406 O   0  0  0  0  0
   -2.2217    2.3712   -1.3685 O   0  0  0  0  0
   -3.6425    2.8921    1.3474 O   0  0  0  0  0
   -3.0634   -2.7118   -1.2010 S   0  0  0  0  0
    5.8111    1.9833   -0.8372 S   0  0  0  0  0
    1.4792    0.6970    2.1147 S   0  0  0  0  0
  1 31  1  0  0  0
  2 32  1  0  0  0
  3 12  1  0  0  0
  3 21  1  0  0  0
  4 10  1  0  0  0
  4 32  1  0  0  0
  5 20  1  0  0  0
  6 24  1  0  0  0
  6 31  1  0  0  0
  7 11  1  0  0  0
  8 13  1  0  0  0
  8 23  1  0  0  0
  9 23  1  0  0  0
 12 14  1  0  0  0
 13 26  1  0  0  0
 14 25  1  0  0  0
 15  7  1  0  0  0
 15 33  1  0  0  0
 16  9  1  0  0  0
 16 17  1  0  0  0
 16 25  1  0  0  0
 17 23  1  0  0  0
 17 33  1  0  0  0
 18  5  1  0  0  0
 19 30  1  0  0  0
 22 30  1  0  0  0
  1  3  2  0  0  0
  2 20  2  0  0  0
  4  5  2  0  0  0
  6 21  2  0  0  0
  7  8  2  0  0  0
  9 27  2  0  0  0
 10 11  2  0  0  0
 12 22  2  0  0  0
 13 28  2  0  0  0
 14 29  2  0  0  0
M  CHG  1  26  -1
M  END
> <rmsd>
0.305064112

$$$$
ZINC04215234


 33 36  0  0  0  0  0  0  0  0999 V2000
   -2.5745   -1.2681   -0.8677 C   0  0  0  0  0
    6.1650    1.5522   -2.2071 C   0  0  0  0  0
   -3.3820   -0.4833   -0.0715 C   0  0  0  0  0
    5.9353   -0.4898   -0.9500 C   0  0  0  0  0
    6.0805   -0.6367   -2.3137 C   0  0  0  0  0
   -4.5213   -2.3537    0.0454 C   0  0  0  0  0
    3.6263   -0.6342    0.8801 C   0  0  0  0  0
    3.0885   -0.1689   -0.2718 C   0  0  0  0  0
    1.1859    1.2815   -1.0975 C   0  0  0  0  0
    5.7731   -1.5044    0.1057 C   0  0  0  0  0
    4.7307   -1.5729    0.9350 C   0  0  0  0  0
   -3.1087    0.9481    0.2276 C   0  0  0  0  0
    3.5326   -0.7194   -1.6264 C   0  0  0  0  0
   -1.8841    1.5945   -0.3647 C   0  0  0  0  0
    3.1292   -0.2431    2.2696 C   0  0  0  0  0
    0.5130    2.0140    0.1000 C   0  0  0  0  0
    1.7474    1.5574    0.9100 C   0  0  0  0  0
    6.1069   -1.9136   -3.0586 C   0  0  0  0  0
   -4.3876    3.6278    1.9927 C   0  0  0  0  0
    6.2119    0.5332   -3.0361 N   0  0  0  0  0
   -4.4990   -1.1040    0.4527 N   0  0  0  0  0
   -3.9058    1.6327    0.9914 N   0  0  0  0  0
    2.1010    0.7638   -0.2511 N   0  0  0  0  0
   -5.4879   -3.2504    0.3769 N   0  0  0  0  0
   -0.7974    1.4709    0.4552 N   0  0  0  0  0
    3.9082   -1.9189   -1.6041 O   0  0  0  0  0
    0.9601    1.1429   -2.2768 O   0  0  0  0  0
    3.4598    0.1042   -2.5732 O   0  0  0  0  0
   -1.9861    2.1291   -1.4572 O   0  0  0  0  0
   -3.4657    2.9541    1.1498 O   0  0  0  0  0
   -3.2298   -2.8498   -0.9698 S   0  0  0  0  0
    5.9650    1.1764   -0.5446 S   0  0  0  0  0
    1.4344    0.4412    2.2957 S   0  0  0  0  0
  1 31  1  0  0  0
  2 32  1  0  0  0
  3 12  1  0  0  0
  3 21  1  0  0  0
  4 10  1  0  0  0
  4 32  1  0  0  0
  5 20  1  0  0  0
  6 24  1  0  0  0
  6 31  1  0  0  0
  7 11  1  0  0  0
  8 13  1  0  0  0
  8 23  1  0  0  0
  9 23  1  0  0  0
 12 14  1  0  0  0
 13 26  1  0  0  0
 14 25  1  0  0  0
 15  7  1  0  0  0
 15 33  1  0  0  0
 16  9  1  0  0  0
 16 17  1  0  0  0
 16 25  1  0  0  0
 17 23  1  0  0  0
 17 33  1  0  0  0
 18  5  1  0  0  0
 19 30  1  0  0  0
 22 30  1  0  0  0
  1  3  2  0  0  0
  2 20  2  0  0  0
  4  5  2  0  0  0
  6 21  2  0  0  0
  7  8  2  0  0  0
  9 27  2  0  0  0
 10 11  2  0  0  0
 12 22  2  0  0  0
 13 28  2  0  0  0
 14 29  2  0  0  0
M  CHG  1  26  -1
M  END
> <rmsd>
0.0586587079

$$$$
ZINC13303011


 36 40  0  0  0  0  0  0  0  0999 V2000
   -3.3358   -3.1139   -0.6973 C   0  0  0  0  0
   -3.8143   -2.6033    0.5093 C   0  0  0  0  0
   -2.7678   -2.2577   -1.6407 C   0  0  0  0  0
   -3.7249   -1.2365    0.7726 C   0  0  0  0  0
   -2.6784   -0.8908   -1.3774 C   0  0  0  0  0
    2.9139   -0.1742    0.2569 C   0  0  0  0  0
    2.5849    0.4013    1.4842 C   0  0  0  0  0
    0.7998    0.5596   -0.6539 C   0  0  0  0  0
   -3.1570   -0.3803   -0.1708 C   0  0  0  0  0
    0.4709    1.1351    0.5734 C   0  0  0  0  0
    2.0213   -0.0950   -0.8121 C   0  0  0  0  0
    1.3634    1.0560    1.6424 C   0  0  0  0  0
   -2.5830    3.3051    0.4227 C   0  0  0  0  0
   -2.2276    4.5954    0.5136 C   0  0  0  0  0
   -3.7795    2.8092    1.0986 C   0  0  0  0  0
   -3.0209    5.5613    1.3714 C   0  0  0  0  0
   -4.6534    3.7117    1.9183 C   0  0  0  0  0
    0.7820    7.0612   -0.9963 C   0  0  0  0  0
   -0.6485    7.0750   -1.5366 C   0  0  0  0  0
    0.8301    6.4628    0.4102 C   0  0  0  0  0
   -1.2773    5.6862   -1.4720 C   0  0  0  0  0
    0.1794    5.0832    0.4472 C   0  0  0  0  0
   -3.8519    4.8919    2.4959 C   0  0  0  0  0
   -2.9288    4.4045    3.6330 C   0  0  0  0  0
   -4.8283    5.9258    3.0849 C   0  0  0  0  0
    0.3800    0.7861    3.7909 C   0  0  0  0  0
   -4.0397    1.5562    0.9067 N   0  0  0  0  0
   -3.0662    1.0164    0.0983 N   0  0  0  0  0
   -1.1580    5.1222   -0.1326 N   0  0  0  0  0
   -0.7664    1.7947    0.7197 N   0  0  0  0  0
    2.3572   -0.6806   -2.0616 N   0  0  0  0  0
    3.4614   -1.2642   -2.1821 O   0  0  0  0  0
    1.5404   -0.5987   -3.0105 O   0  0  0  0  0
   -1.5007    2.1213   -1.9369 O   0  0  0  0  0
    1.0613    1.6124    2.8494 O   0  0  0  0  0
   -1.8640    2.0123   -0.4825 P   0  0  0  0  0
  1  2  1  0  0  0
  3  5  1  0  0  0
  4  9  1  0  0  0
  6 11  1  0  0  0
  7 12  1  0  0  0
  8 10  1  0  0  0
  9 28  1  0  0  0
 10 30  1  0  0  0
 11 31  1  0  0  0
 12 35  1  0  0  0
 13 15  1  0  0  0
 14 29  1  0  0  0
 16 14  1  0  0  0
 16 23  1  0  0  0
 17 15  1  0  0  0
 17 23  1  0  0  0
 18 19  1  0  0  0
 18 20  1  0  0  0
 19 21  1  0  0  0
 20 22  1  0  0  0
 21 29  1  0  0  0
 22 29  1  0  0  0
 23 24  1  0  0  0
 23 25  1  0  0  0
 26 35  1  0  0  0
 28 27  1  0  0  0
 31 32  1  0  0  0
 36 13  1  0  0  0
 36 28  1  0  0  0
 36 30  1  0  0  0
  1  3  2  0  0  0
  2  4  2  0  0  0
  5  9  2  0  0  0
  6  7  2  0  0  0
  8 11  2  0  0  0
 10 12  2  0  0  0
 13 14  2  0  0  0
 15 27  2  0  0  0
 31 33  2  0  0  0
 36 34  2  0  0  0
M  CHG  2  31   1  32  -1
M  END
> <rmsd>
0.457055509

$$$$
ZINC13303011


 36 40  0  0  0  0  0  0  0  0999 V2000
   -3.3456   -3.1150   -0.7045 C   0  0  0  0  0
   -3.8031   -2.6063    0.5109 C   0  0  0  0  0
   -2.7968   -2.2568   -1.6575 C   0  0  0  0  0
   -3.7121   -1.2393    0.7735 C   0  0  0  0  0
   -2.7057   -0.8898   -1.3949 C   0  0  0  0  0
    2.9109   -0.1643    0.2617 C   0  0  0  0  0
    2.5796    0.4174    1.4854 C   0  0  0  0  0
    0.7969    0.5612   -0.6556 C   0  0  0  0  0
   -3.1633   -0.3811   -0.1794 C   0  0  0  0  0
    0.4654    1.1428    0.5681 C   0  0  0  0  0
    2.0195   -0.0923   -0.8089 C   0  0  0  0  0
    1.3568    1.0709    1.6386 C   0  0  0  0  0
   -2.5938    3.3076    0.4001 C   0  0  0  0  0
   -2.2388    4.5983    0.4856 C   0  0  0  0  0
   -3.7817    2.8096    1.0890 C   0  0  0  0  0
   -3.0591    5.5763    1.3035 C   0  0  0  0  0
   -4.6166    3.6982    1.9626 C   0  0  0  0  0
    0.5528    7.0419   -1.4257 C   0  0  0  0  0
   -0.6584    6.4484   -2.1460 C   0  0  0  0  0
    0.3343    7.0617    0.0876 C   0  0  0  0  0
   -1.0128    5.0724   -1.5901 C   0  0  0  0  0
   -0.0352    5.6771    0.6116 C   0  0  0  0  0
   -4.5404    5.1650    1.5026 C   0  0  0  0  0
   -5.1735    6.0654    2.5783 C   0  0  0  0  0
   -5.3342    5.3545    0.1924 C   0  0  0  0  0
    1.4440    2.9900    3.0406 C   0  0  0  0  0
   -4.0311    1.5518    0.9156 N   0  0  0  0  0
   -3.0708    1.0155    0.0891 N   0  0  0  0  0
   -1.1527    5.1169   -0.1392 N   0  0  0  0  0
   -0.7730    1.8012    0.7093 N   0  0  0  0  0
    2.3579   -0.6841   -2.0547 N   0  0  0  0  0
    3.4632   -1.2665   -2.1707 O   0  0  0  0  0
    1.5422   -0.6087   -3.0050 O   0  0  0  0  0
   -1.5041    2.1126   -1.9497 O   0  0  0  0  0
    1.0523    1.6333    2.8422 O   0  0  0  0  0
   -1.8695    2.0105   -0.4952 P   0  0  0  0  0
  1  2  1  0  0  0
  3  5  1  0  0  0
  4  9  1  0  0  0
  6 11  1  0  0  0
  7 12  1  0  0  0
  8 10  1  0  0  0
  9 28  1  0  0  0
 10 30  1  0  0  0
 11 31  1  0  0  0
 12 35  1  0  0  0
 13 15  1  0  0  0
 14 29  1  0  0  0
 16 14  1  0  0  0
 16 23  1  0  0  0
 17 15  1  0  0  0
 17 23  1  0  0  0
 18 19  1  0  0  0
 18 20  1  0  0  0
 19 21  1  0  0  0
 20 22  1  0  0  0
 21 29  1  0  0  0
 22 29  1  0  0  0
 23 24  1  0  0  0
 23 25  1  0  0  0
 26 35  1  0  0  0
 28 27  1  0  0  0
 31 32  1  0  0  0
 36 13  1  0  0  0
 36 28  1  0  0  0
 36 30  1  0  0  0
  1  3  2  0  0  0
  2  4  2  0  0  0
  5  9  2  0  0  0
  6  7  2  0  0  0
  8 11  2  0  0  0
 10 12  2  0  0  0
 13 14  2  0  0  0
 15 27  2  0  0  0
 31 33  2  0  0  0
 36 34  2  0  0  0
M  CHG  2  31   1  32  -1
M  END
> <rmsd>
0.453618586

$$$$
ZINC13303011


 36 40  0  0  0  0  0  0  0  0999 V2000
   -3.3360   -3.1137   -0.6978 C   0  0  0  0  0
   -3.8145   -2.6032    0.5088 C   0  0  0  0  0
   -2.7680   -2.2574   -1.6411 C   0  0  0  0  0
   -3.7251   -1.2363    0.7722 C   0  0  0  0  0
   -2.6785   -0.8906   -1.3778 C   0  0  0  0  0
    2.9138   -0.1743    0.2568 C   0  0  0  0  0
    2.5848    0.4012    1.4841 C   0  0  0  0  0
    0.7998    0.5597   -0.6540 C   0  0  0  0  0
   -3.1571   -0.3801   -0.1711 C   0  0  0  0  0
    0.4708    1.1351    0.5733 C   0  0  0  0  0
    2.0213   -0.0950   -0.8122 C   0  0  0  0  0
    1.3633    1.0559    1.6424 C   0  0  0  0  0
   -2.5830    3.3053    0.4227 C   0  0  0  0  0
   -2.2275    4.5955    0.5137 C   0  0  0  0  0
   -3.7795    2.8093    1.0985 C   0  0  0  0  0
   -3.0208    5.5614    1.3715 C   0  0  0  0  0
   -4.6534    3.7118    1.9182 C   0  0  0  0  0
    1.4222    5.2749   -1.3930 C   0  0  0  0  0
    1.2858    5.1896    0.1277 C   0  0  0  0  0
    0.2386    4.6003   -2.0874 C   0  0  0  0  0
   -0.0570    5.7438    0.5944 C   0  0  0  0  0
   -1.0894    5.1621   -1.5885 C   0  0  0  0  0
   -3.8519    4.8920    2.4960 C   0  0  0  0  0
   -2.9288    4.4044    3.6331 C   0  0  0  0  0
   -4.8282    5.9258    3.0850 C   0  0  0  0  0
    1.4553    2.9671    3.0547 C   0  0  0  0  0
   -4.0398    1.5563    0.9065 N   0  0  0  0  0
   -3.0662    1.0166    0.0981 N   0  0  0  0  0
   -1.1579    5.1223   -0.1324 N   0  0  0  0  0
   -0.7664    1.7948    0.7196 N   0  0  0  0  0
    2.3571   -0.6805   -2.0618 N   0  0  0  0  0
    3.4613   -1.2641   -2.1823 O   0  0  0  0  0
    1.5403   -0.5984   -3.0107 O   0  0  0  0  0
   -1.5007    2.1215   -1.9369 O   0  0  0  0  0
    1.0612    1.6122    2.8493 O   0  0  0  0  0
   -1.8640    2.0125   -0.4825 P   0  0  0  0  0
  1  2  1  0  0  0
  3  5  1  0  0  0
  4  9  1  0  0  0
  6 11  1  0  0  0
  7 12  1  0  0  0
  8 10  1  0  0  0
  9 28  1  0  0  0
 10 30  1  0  0  0
 11 31  1  0  0  0
 12 35  1  0  0  0
 13 15  1  0  0  0
 14 29  1  0  0  0
 16 14  1  0  0  0
 16 23  1  0  0  0
 17 15  1  0  0  0
 17 23  1  0  0  0
 18 19  1  0  0  0
 18 20  1  0  0  0
 19 21  1  0  0  0
 20 22  1  0  0  0
 21 29  1  0  0  0
 22 29  1  0  0  0
 23 24  1  0  0  0
 23 25  1  0  0  0
 26 35  1  0  0  0
 28 27  1  0  0  0
 31 32  1  0  0  0
 36 13  1  0  0  0
 36 28  1  0  0  0
 36 30  1  0  0  0
  1  3  2  0  0  0
  2  4  2  0  0  0
  5  9  2  0  0  0
  6  7  2  0  0  0
  8 11  2  0  0  0
 10 12  2  0  0  0
 13 14  2  0  0  0
 15 27  2  0  0  0
 31 33  2  0  0  0
 36 34  2  0  0  0
M  CHG  2  31   1  32  -1
M  END
> <rmsd>
0.45700258

$$$$
ZINC03830413


 33 36  0  0  0  0  0  0  0  0999 V2000
   -4.4873   -1.1677    0.4479 C   0  0  0  0  0
   -3.4007   -0.4798   -0.0501 C   0  0  0  0  0
    5.6619   -4.1859    1.0155 C   0  0  0  0  0
   -2.9979   -2.4348   -0.9588 C   0  0  0  0  0
    3.0779   -0.1615   -0.2850 C   0  0  0  0  0
    3.6267   -0.6221    0.8643 C   0  0  0  0  0
    1.1600    1.2790   -1.1142 C   0  0  0  0  0
   -3.1245    0.9529    0.2406 C   0  0  0  0  0
    3.5185   -0.7403   -1.6245 C   0  0  0  0  0
   -1.9032    1.5956   -0.3626 C   0  0  0  0  0
    3.1237   -0.2292    2.2516 C   0  0  0  0  0
    0.4972    2.0154    0.0850 C   0  0  0  0  0
    1.7360    1.5617    0.8875 C   0  0  0  0  0
    4.6737   -6.5212    1.0312 C   0  0  0  0  0
   -4.3901    3.6417    2.0013 C   0  0  0  0  0
    4.7814   -1.5917    0.9269 C   0  0  0  0  0
   -2.5453   -1.2048   -0.8567 N   0  0  0  0  0
    6.8835   -3.7053    1.0484 N   0  0  0  0  0
    7.7130   -4.8028    1.1002 N   0  0  0  0  0
    7.0127   -5.9304    1.0997 N   0  0  0  0  0
   -3.9162    1.6417    1.0062 N   0  0  0  0  0
    5.7310   -5.5422    1.0467 N   0  0  0  0  0
    2.0855    0.7654   -0.2750 N   0  0  0  0  0
   -2.3945   -3.4157   -1.6810 N   0  0  0  0  0
   -0.8113    1.4750    0.4510 N   0  0  0  0  0
    2.8502   -1.7337   -2.0128 O   0  0  0  0  0
    0.9252    1.1339   -2.2909 O   0  0  0  0  0
    4.4904   -0.1458   -2.1595 O   0  0  0  0  0
   -2.0116    2.1252   -1.4568 O   0  0  0  0  0
   -3.4741    2.9635    1.1556 O   0  0  0  0  0
   -4.4476   -2.7885   -0.1113 S   0  0  0  0  0
    1.4294    0.4488    2.2781 S   0  0  0  0  0
    4.1464   -3.2766    0.9414 S   0  0  0  0  0
  1 31  1  0  0  0
  2  8  1  0  0  0
  2 17  1  0  0  0
  3 22  1  0  0  0
  3 33  1  0  0  0
  4 24  1  0  0  0
  4 31  1  0  0  0
  5  9  1  0  0  0
  5 23  1  0  0  0
  7 23  1  0  0  0
  8 10  1  0  0  0
  9 26  1  0  0  0
 10 25  1  0  0  0
 11  6  1  0  0  0
 11 32  1  0  0  0
 12  7  1  0  0  0
 12 13  1  0  0  0
 12 25  1  0  0  0
 13 23  1  0  0  0
 13 32  1  0  0  0
 14 22  1  0  0  0
 15 30  1  0  0  0
 16  6  1  0  0  0
 16 33  1  0  0  0
 18 19  1  0  0  0
 21 30  1  0  0  0
 22 20  1  0  0  0
  1  2  2  0  0  0
  3 18  2  0  0  0
  4 17  2  0  0  0
  5  6  2  0  0  0
  7 27  2  0  0  0
  8 21  2  0  0  0
  9 28  2  0  0  0
 10 29  2  0  0  0
 19 20  2  0  0  0
M  CHG  1  26  -1
M  END
> <rmsd>
0.102791481

$$$$
ZINC03830413


 33 36  0  0  0  0  0  0  0  0999 V2000
   -4.2086   -1.2865    0.2909 C   0  0  0  0  0
   -3.1736   -0.4829   -0.1391 C   0  0  0  0  0
    6.1499   -3.3976    1.1175 C   0  0  0  0  0
   -2.5631   -2.3534   -1.1078 C   0  0  0  0  0
    3.2527    0.4286   -0.1201 C   0  0  0  0  0
    3.8027   -0.0288    1.0299 C   0  0  0  0  0
    1.2397    1.7238   -0.9633 C   0  0  0  0  0
   -3.0398    0.9553    0.2173 C   0  0  0  0  0
    3.7891   -0.0510   -1.4639 C   0  0  0  0  0
   -1.8631    1.7305   -0.3144 C   0  0  0  0  0
    3.2196    0.2581    2.4117 C   0  0  0  0  0
    0.4723    2.3460    0.2382 C   0  0  0  0  0
    1.7200    1.9725    1.0679 C   0  0  0  0  0
    5.3800   -5.8110    1.0053 C   0  0  0  0  0
   -4.6050    3.4421    2.0333 C   0  0  0  0  0
    5.0386   -0.8919    1.0975 C   0  0  0  0  0
   -2.2288   -1.0930   -0.9409 N   0  0  0  0  0
    7.3205   -2.8104    1.2146 N   0  0  0  0  0
    8.2449   -3.8298    1.2544 N   0  0  0  0  0
    7.6514   -5.0150    1.1838 N   0  0  0  0  0
   -3.9165    1.5369    0.9793 N   0  0  0  0  0
    6.3419   -4.7421    1.0983 N   0  0  0  0  0
    2.1797    1.2608   -0.1110 N   0  0  0  0  0
   -1.8484   -3.2444   -1.8448 N   0  0  0  0  0
   -0.7926    1.6748    0.5339 N   0  0  0  0  0
    3.2282   -1.0834   -1.9153 O   0  0  0  0  0
    1.0587    1.6079   -2.1527 O   0  0  0  0  0
    4.7198    0.6509   -1.9388 O   0  0  0  0  0
   -1.9829    2.2939   -1.3904 O   0  0  0  0  0
   -3.6028    2.8857    1.1964 O   0  0  0  0  0
   -4.0018   -2.8720   -0.3292 S   0  0  0  0  0
    1.4703    0.7788    2.4017 S   0  0  0  0  0
    4.5607   -2.6265    1.0227 S   0  0  0  0  0
  1 31  1  0  0  0
  2  8  1  0  0  0
  2 17  1  0  0  0
  3 22  1  0  0  0
  3 33  1  0  0  0
  4 24  1  0  0  0
  4 31  1  0  0  0
  5  9  1  0  0  0
  5 23  1  0  0  0
  7 23  1  0  0  0
  8 10  1  0  0  0
  9 26  1  0  0  0
 10 25  1  0  0  0
 11  6  1  0  0  0
 11 32  1  0  0  0
 12  7  1  0  0  0
 12 13  1  0  0  0
 12 25  1  0  0  0
 13 23  1  0  0  0
 13 32  1  0  0  0
 14 22  1  0  0  0
 15 30  1  0  0  0
 16  6  1  0  0  0
 16 33  1  0  0  0
 18 19  1  0  0  0
 21 30  1  0  0  0
 22 20  1  0  0  0
  1  2  2  0  0  0
  3 18  2  0  0  0
  4 17  2  0  0  0
  5  6  2  0  0  0
  7 27  2  0  0  0
  8 21  2  0  0  0
  9 28  2  0  0  0
 10 29  2  0  0  0
 19 20  2  0  0  0
M  CHG  1  26  -1
M  END
> <rmsd>
0.402635455

$$$$
ZINC03830413


 33 36  0  0  0  0  0  0  0  0999 V2000
   -2.5780   -1.2648   -0.8725 C   0  0  0  0  0
   -3.3840   -0.4824   -0.0723 C   0  0  0  0  0
    5.6816   -4.1793    1.0000 C   0  0  0  0  0
   -4.5210   -2.3542    0.0443 C   0  0  0  0  0
    3.0948   -0.1510   -0.2827 C   0  0  0  0  0
    3.6405   -0.6182    0.8654 C   0  0  0  0  0
    1.1772    1.2916   -1.1089 C   0  0  0  0  0
   -3.1114    0.9488    0.2289 C   0  0  0  0  0
    3.5410   -0.7201   -1.6245 C   0  0  0  0  0
   -1.8892    1.5977   -0.3658 C   0  0  0  0  0
    3.1320   -0.2354    2.2535 C   0  0  0  0  0
    0.5089    2.0188    0.0928 C   0  0  0  0  0
    1.7458    1.5620    0.8965 C   0  0  0  0  0
    4.6975   -6.5164    0.9969 C   0  0  0  0  0
   -4.3879    3.6236    2.0030 C   0  0  0  0  0
    4.7967   -1.5861    0.9255 C   0  0  0  0  0
   -4.4988   -1.1052    0.4540 N   0  0  0  0  0
    6.9022   -3.6967    1.0403 N   0  0  0  0  0
    7.7335   -4.7930    1.0877 N   0  0  0  0  0
    7.0353   -5.9219    1.0774 N   0  0  0  0  0
   -3.9069    1.6311    0.9963 N   0  0  0  0  0
    5.7530   -5.5356    1.0225 N   0  0  0  0  0
    2.1006    0.7741   -0.2701 N   0  0  0  0  0
   -5.4856   -3.2525    0.3768 N   0  0  0  0  0
   -0.7998    1.4737    0.4507 N   0  0  0  0  0
    2.8759   -1.7122   -2.0216 O   0  0  0  0  0
    0.9467    1.1538   -2.2874 O   0  0  0  0  0
    4.5136   -0.1203   -2.1522 O   0  0  0  0  0
   -1.9948    2.1342   -1.4569 O   0  0  0  0  0
   -3.4678    2.9526    1.1559 O   0  0  0  0  0
   -3.2319   -2.8468   -0.9757 S   0  0  0  0  0
    1.4364    0.4394    2.2787 S   0  0  0  0  0
    4.1647   -3.2723    0.9268 S   0  0  0  0  0
  1 31  1  0  0  0
  2  8  1  0  0  0
  2 17  1  0  0  0
  3 22  1  0  0  0
  3 33  1  0  0  0
  4 24  1  0  0  0
  4 31  1  0  0  0
  5  9  1  0  0  0
  5 23  1  0  0  0
  7 23  1  0  0  0
  8 10  1  0  0  0
  9 26  1  0  0  0
 10 25  1  0  0  0
 11  6  1  0  0  0
 11 32  1  0  0  0
 12  7  1  0  0  0
 12 13  1  0  0  0
 12 25  1  0  0  0
 13 23  1  0  0  0
 13 32  1  0  0  0
 14 22  1  0  0  0
 15 30  1  0  0  0
 16  6  1  0  0  0
 16 33  1  0  0  0
 18 19  1  0  0  0
 21 30  1  0  0  0
 22 20  1  0  0  0
  1  2  2  0  0  0
  3 18  2  0  0  0
  4 17  2  0  0  0
  5  6  2  0  0  0
  7 27  2  0  0  0
  8 21  2  0  0  0
  9 28  2  0  0  0
 10 29  2  0  0  0
 19 20  2  0  0  0
M  CHG  1  26  -1
M  END
> <rmsd>
0.0604357608

$$$$
ZINC03830413


 33 36  0  0  0  0  0  0  0  0999 V2000
   -2.2554   -1.1551   -0.9589 C   0  0  0  0  0
   -3.1565   -0.4827   -0.1600 C   0  0  0  0  0
    6.1673   -3.3904    1.1106 C   0  0  0  0  0
   -4.1208   -2.4524   -0.1590 C   0  0  0  0  0
    3.2682    0.4390   -0.1124 C   0  0  0  0  0
    3.8149   -0.0249    1.0366 C   0  0  0  0  0
    1.2561    1.7365   -0.9542 C   0  0  0  0  0
   -3.0263    0.9534    0.2063 C   0  0  0  0  0
    3.8102   -0.0309   -1.4573 C   0  0  0  0  0
   -1.8490    1.7340   -0.3163 C   0  0  0  0  0
    3.2264    0.2520    2.4182 C   0  0  0  0  0
    0.4835    2.3496    0.2486 C   0  0  0  0  0
    1.7288    1.9727    1.0803 C   0  0  0  0  0
    5.4018   -5.8043    0.9799 C   0  0  0  0  0
   -4.6019    3.4257    2.0329 C   0  0  0  0  0
    5.0520   -0.8865    1.1029 C   0  0  0  0  0
   -4.2270   -1.2248    0.2993 N   0  0  0  0  0
    7.3366   -2.8020    1.2156 N   0  0  0  0  0
    8.2626   -3.8201    1.2520 N   0  0  0  0  0
    7.6713   -5.0058    1.1716 N   0  0  0  0  0
   -3.9066    1.5285    0.9689 N   0  0  0  0  0
    6.3617   -4.7345    1.0833 N   0  0  0  0  0
    2.1938    1.2695   -0.1016 N   0  0  0  0  0
   -5.0100   -3.4470    0.1019 N   0  0  0  0  0
   -0.7814    1.6744    0.5354 N   0  0  0  0  0
    3.2525   -1.0613   -1.9174 O   0  0  0  0  0
    1.0795    1.6280   -2.1450 O   0  0  0  0  0
    4.7413    0.6756   -1.9244 O   0  0  0  0  0
   -1.9660    2.3041   -1.3890 O   0  0  0  0  0
   -3.5959    2.8764    1.1960 O   0  0  0  0  0
   -2.7580   -2.7838   -1.1478 S   0  0  0  0  0
    1.4764    0.7699    2.4054 S   0  0  0  0  0
    4.5772   -2.6212    1.0151 S   0  0  0  0  0
  1 31  1  0  0  0
  2  8  1  0  0  0
  2 17  1  0  0  0
  3 22  1  0  0  0
  3 33  1  0  0  0
  4 24  1  0  0  0
  4 31  1  0  0  0
  5  9  1  0  0  0
  5 23  1  0  0  0
  7 23  1  0  0  0
  8 10  1  0  0  0
  9 26  1  0  0  0
 10 25  1  0  0  0
 11  6  1  0  0  0
 11 32  1  0  0  0
 12  7  1  0  0  0
 12 13  1  0  0  0
 12 25  1  0  0  0
 13 23  1  0  0  0
 13 32  1  0  0  0
 14 22  1  0  0  0
 15 30  1  0  0  0
 16  6  1  0  0  0
 16 33  1  0  0  0
 18 19  1  0  0  0
 21 30  1  0  0  0
 22 20  1  0  0  0
  1  2  2  0  0  0
  3 18  2  0  0  0
  4 17  2  0  0  0
  5  6  2  0  0  0
  7 27  2  0  0  0
  8 21  2  0  0  0
  9 28  2  0  0  0
 10 29  2  0  0  0
 19 20  2  0  0  0
M  CHG  1  26  -1
M  END
> <rmsd>
0.359815329

$$$$
ZINC03830413


 33 36  0  0  0  0  0  0  0  0999 V2000
   -4.4868   -1.1675    0.4475 C   0  0  0  0  0
   -3.4002   -0.4796   -0.0504 C   0  0  0  0  0
    7.4887   -2.0103    1.0327 C   0  0  0  0  0
   -2.9974   -2.4345   -0.9593 C   0  0  0  0  0
    3.0785   -0.1616   -0.2849 C   0  0  0  0  0
    3.6272   -0.6224    0.8643 C   0  0  0  0  0
    1.1607    1.2791   -1.1140 C   0  0  0  0  0
   -3.1239    0.9530    0.2405 C   0  0  0  0  0
    3.5191   -0.7403   -1.6245 C   0  0  0  0  0
   -1.9025    1.5957   -0.3626 C   0  0  0  0  0
    3.1242   -0.2297    2.2516 C   0  0  0  0  0
    0.4979    2.0153    0.0852 C   0  0  0  0  0
    1.7366    1.5615    0.8877 C   0  0  0  0  0
    9.6169   -0.6323    1.0790 C   0  0  0  0  0
   -4.3895    3.6416    2.0015 C   0  0  0  0  0
    4.7819   -1.5920    0.9268 C   0  0  0  0  0
   -2.5448   -1.2046   -0.8570 N   0  0  0  0  0
    7.2270   -3.2971    1.0515 N   0  0  0  0  0
    8.4511   -3.9240    1.1110 N   0  0  0  0  0
    9.4402   -3.0389    1.1273 N   0  0  0  0  0
   -3.9156    1.6417    1.0062 N   0  0  0  0  0
    8.8360   -1.8434    1.0783 N   0  0  0  0  0
    2.0861    0.7653   -0.2749 N   0  0  0  0  0
   -2.3941   -3.4154   -1.6816 N   0  0  0  0  0
   -0.8107    1.4750    0.4511 N   0  0  0  0  0
    2.8508   -1.7336   -2.0129 O   0  0  0  0  0
    0.9260    1.1341   -2.2908 O   0  0  0  0  0
    4.4910   -0.1457   -2.1594 O   0  0  0  0  0
   -2.0109    2.1254   -1.4567 O   0  0  0  0  0
   -3.4735    2.9635    1.1557 O   0  0  0  0  0
   -4.4472   -2.7883   -0.1119 S   0  0  0  0  0
    1.4299    0.4485    2.2782 S   0  0  0  0  0
    6.3310   -0.6748    0.9620 S   0  0  0  0  0
  1 31  1  0  0  0
  2  8  1  0  0  0
  2 17  1  0  0  0
  3 22  1  0  0  0
  3 33  1  0  0  0
  4 24  1  0  0  0
  4 31  1  0  0  0
  5  9  1  0  0  0
  5 23  1  0  0  0
  7 23  1  0  0  0
  8 10  1  0  0  0
  9 26  1  0  0  0
 10 25  1  0  0  0
 11  6  1  0  0  0
 11 32  1  0  0  0
 12  7  1  0  0  0
 12 13  1  0  0  0
 12 25  1  0  0  0
 13 23  1  0  0  0
 13 32  1  0  0  0
 14 22  1  0  0  0
 15 30  1  0  0  0
 16  6  1  0  0  0
 16 33  1  0  0  0
 18 19  1  0  0  0
 21 30  1  0  0  0
 22 20  1  0  0  0
  1  2  2  0  0  0
  3 18  2  0  0  0
  4 17  2  0  0  0
  5  6  2  0  0  0
  7 27  2  0  0  0
  8 21  2  0  0  0
  9 28  2  0  0  0
 10 29  2  0  0  0
 19 20  2  0  0  0
M  CHG  1  26  -1
M  END
> <rmsd>
0.102892175

$$$$
ZINC03830413


 33 36  0  0  0  0  0  0  0  0999 V2000
   -4.2081   -1.2862    0.2906 C   0  0  0  0  0
   -3.1731   -0.4826   -0.1394 C   0  0  0  0  0
    7.7678   -1.0687    1.2877 C   0  0  0  0  0
   -2.5626   -2.3531   -1.1082 C   0  0  0  0  0
    3.2533    0.4284   -0.1200 C   0  0  0  0  0
    3.8032   -0.0290    1.0300 C   0  0  0  0  0
    1.2404    1.7239   -0.9631 C   0  0  0  0  0
   -3.0392    0.9555    0.2173 C   0  0  0  0  0
    3.7898   -0.0510   -1.4638 C   0  0  0  0  0
   -1.8625    1.7307   -0.3144 C   0  0  0  0  0
    3.2200    0.2577    2.4119 C   0  0  0  0  0
    0.4730    2.3460    0.2384 C   0  0  0  0  0
    1.7206    1.9723    1.0682 C   0  0  0  0  0
    9.7580    0.4926    1.4669 C   0  0  0  0  0
   -4.6043    3.4421    2.0335 C   0  0  0  0  0
    5.0391   -0.8923    1.0976 C   0  0  0  0  0
   -2.2283   -1.0928   -0.9412 N   0  0  0  0  0
    7.6247   -2.3734    1.2466 N   0  0  0  0  0
    8.8985   -2.8892    1.3271 N   0  0  0  0  0
    9.8011   -1.9199    1.4147 N   0  0  0  0  0
   -3.9159    1.5370    0.9792 N   0  0  0  0  0
    9.0919   -0.7829    1.3899 N   0  0  0  0  0
    2.1803    1.2608   -0.1108 N   0  0  0  0  0
   -1.8479   -3.2441   -1.8453 N   0  0  0  0  0
   -0.7920    1.6748    0.5340 N   0  0  0  0  0
    3.2288   -1.0833   -1.9153 O   0  0  0  0  0
    1.0595    1.6081   -2.1525 O   0  0  0  0  0
    4.7205    0.6509   -1.9385 O   0  0  0  0  0
   -1.9822    2.2942   -1.3903 O   0  0  0  0  0
   -3.6022    2.8857    1.1966 O   0  0  0  0  0
   -4.0013   -2.8718   -0.3298 S   0  0  0  0  0
    1.4708    0.7784    2.4018 S   0  0  0  0  0
    6.4955    0.1587    1.2261 S   0  0  0  0  0
  1 31  1  0  0  0
  2  8  1  0  0  0
  2 17  1  0  0  0
  3 22  1  0  0  0
  3 33  1  0  0  0
  4 24  1  0  0  0
  4 31  1  0  0  0
  5  9  1  0  0  0
  5 23  1  0  0  0
  7 23  1  0  0  0
  8 10  1  0  0  0
  9 26  1  0  0  0
 10 25  1  0  0  0
 11  6  1  0  0  0
 11 32  1  0  0  0
 12  7  1  0  0  0
 12 13  1  0  0  0
 12 25  1  0  0  0
 13 23  1  0  0  0
 13 32  1  0  0  0
 14 22  1  0  0  0
 15 30  1  0  0  0
 16  6  1  0  0  0
 16 33  1  0  0  0
 18 19  1  0  0  0
 21 30  1  0  0  0
 22 20  1  0  0  0
  1  2  2  0  0  0
  3 18  2  0  0  0
  4 17  2  0  0  0
  5  6  2  0  0  0
  7 27  2  0  0  0
  8 21  2  0  0  0
  9 28  2  0  0  0
 10 29  2  0  0  0
 19 20  2  0  0  0
M  CHG  1  26  -1
M  END
> <rmsd>
0.402820885

$$$$
ZINC04676376


 33 36  0  0  0  0  0  0  0  0999 V2000
   -4.6632   -1.0745    0.5471 C   0  0  0  0  0
   -3.5387   -0.4739    0.0211 C   0  0  0  0  0
    8.3889   -0.1382   -0.1341 C   0  0  0  0  0
   -3.2569   -2.4847   -0.8079 C   0  0  0  0  0
    3.4454    0.1564   -0.4165 C   0  0  0  0  0
    4.3674    0.3205    0.5614 C   0  0  0  0  0
    1.1391    0.9527   -1.0986 C   0  0  0  0  0
   -3.1759    0.9501    0.2534 C   0  0  0  0  0
    3.8140   -0.5767   -1.7006 C   0  0  0  0  0
   -1.9200    1.4932   -0.3758 C   0  0  0  0  0
    4.1254    1.1636    1.8134 C   0  0  0  0  0
    0.5026    1.7854    0.0533 C   0  0  0  0  0
    1.6406    1.2099    0.9249 C   0  0  0  0  0
    9.9477    1.5014   -1.2798 C   0  0  0  0  0
   -4.2724    3.7791    1.9045 C   0  0  0  0  0
    5.7402   -0.3065    0.5509 C   0  0  0  0  0
   -2.7308   -1.2811   -0.7559 N   0  0  0  0  0
    8.5402   -1.3263    0.4045 N   0  0  0  0  0
    9.8728   -1.6359    0.2525 N   0  0  0  0  0
   10.5221   -0.6578   -0.3671 N   0  0  0  0  0
   -3.9225    1.7156    0.9909 N   0  0  0  0  0
    9.5924    0.2773   -0.6075 N   0  0  0  0  0
    2.2084    0.7076   -0.3119 N   0  0  0  0  0
   -2.7156   -3.5285   -1.4903 N   0  0  0  0  0
   -0.8336    1.3405    0.4410 N   0  0  0  0  0
    3.6168   -1.8197   -1.6715 O   0  0  0  0  0
    0.8611    0.6834   -2.2435 O   0  0  0  0  0
    4.2655    0.1605   -2.6157 O   0  0  0  0  0
   -1.9996    1.9838   -1.4905 O   0  0  0  0  0
   -3.4014    3.0133    1.0866 O   0  0  0  0  0
   -4.7228   -2.7159    0.0539 S   0  0  0  0  0
    2.7921    2.3994    1.6441 S   0  0  0  0  0
    6.9009    0.8111   -0.2529 S   0  0  0  0  0
  1 31  1  0  0  0
  2  8  1  0  0  0
  2 17  1  0  0  0
  3 22  1  0  0  0
  3 33  1  0  0  0
  4 24  1  0  0  0
  4 31  1  0  0  0
  5  9  1  0  0  0
  5 23  1  0  0  0
  7 23  1  0  0  0
  8 10  1  0  0  0
  9 26  1  0  0  0
 10 25  1  0  0  0
 11  6  1  0  0  0
 11 32  1  0  0  0
 12  7  1  0  0  0
 12 13  1  0  0  0
 12 25  1  0  0  0
 13 23  1  0  0  0
 13 32  1  0  0  0
 14 22  1  0  0  0
 15 30  1  0  0  0
 16  6  1  0  0  0
 16 33  1  0  0  0
 18 19  1  0  0  0
 21 30  1  0  0  0
 22 20  1  0  0  0
  1  2  2  0  0  0
  3 18  2  0  0  0
  4 17  2  0  0  0
  5  6  2  0  0  0
  7 27  2  0  0  0
  8 21  2  0  0  0
  9 28  2  0  0  0
 10 29  2  0  0  0
 19 20  2  0  0  0
M  CHG  1  26  -1
M  END
> <rmsd>
0.166392416

$$$$
ZINC04676376


 33 36  0  0  0  0  0  0  0  0999 V2000
   -4.4560   -1.1952    0.4303 C   0  0  0  0  0
   -3.4029   -0.4581   -0.0694 C   0  0  0  0  0
    8.4394    0.9729   -0.4101 C   0  0  0  0  0
   -2.9626   -2.3694   -1.0507 C   0  0  0  0  0
    3.4839    0.8358   -0.5822 C   0  0  0  0  0
    4.4111    1.0118    0.3887 C   0  0  0  0  0
    1.0998    1.4662   -1.1623 C   0  0  0  0  0
   -3.1635    0.9724    0.2619 C   0  0  0  0  0
    3.8853    0.2345   -1.9237 C   0  0  0  0  0
   -1.9770    1.6719   -0.3472 C   0  0  0  0  0
    4.1252    1.7362    1.7041 C   0  0  0  0  0
    0.4195    2.1516    0.0595 C   0  0  0  0  0
    1.6253    1.6204    0.8656 C   0  0  0  0  0
    9.8168    2.8265   -1.4579 C   0  0  0  0  0
   -4.4683    3.5624    2.1383 C   0  0  0  0  0
    5.8339    0.5149    0.3073 C   0  0  0  0  0
   -2.5452   -1.1298   -0.9185 N   0  0  0  0  0
    8.7095   -0.2323    0.0358 N   0  0  0  0  0
   10.0604   -0.4074   -0.1624 N   0  0  0  0  0
   10.6043    0.6681   -0.7188 N   0  0  0  0  0
   -3.9575    1.6112    1.0675 N   0  0  0  0  0
    9.5890    1.5296   -0.8724 N   0  0  0  0  0
    2.2055    1.2630   -0.4151 N   0  0  0  0  0
   -2.3467   -3.3072   -1.8184 N   0  0  0  0  0
   -0.8617    1.5599    0.4366 N   0  0  0  0  0
    3.8009   -1.0201   -1.9838 O   0  0  0  0  0
    0.8191    1.2564   -2.3189 O   0  0  0  0  0
    4.2466    1.0742   -2.7892 O   0  0  0  0  0
   -2.1273    2.2328   -1.4207 O   0  0  0  0  0
   -3.5525    2.9406    1.2503 O   0  0  0  0  0
   -4.3804   -2.7950   -0.1828 S   0  0  0  0  0
    2.6829    2.8545    1.6509 S   0  0  0  0  0
    6.8700    1.7888   -0.4314 S   0  0  0  0  0
  1 31  1  0  0  0
  2  8  1  0  0  0
  2 17  1  0  0  0
  3 22  1  0  0  0
  3 33  1  0  0  0
  4 24  1  0  0  0
  4 31  1  0  0  0
  5  9  1  0  0  0
  5 23  1  0  0  0
  7 23  1  0  0  0
  8 10  1  0  0  0
  9 26  1  0  0  0
 10 25  1  0  0  0
 11  6  1  0  0  0
 11 32  1  0  0  0
 12  7  1  0  0  0
 12 13  1  0  0  0
 12 25  1  0  0  0
 13 23  1  0  0  0
 13 32  1  0  0  0
 14 22  1  0  0  0
 15 30  1  0  0  0
 16  6  1  0  0  0
 16 33  1  0  0  0
 18 19  1  0  0  0
 21 30  1  0  0  0
 22 20  1  0  0  0
  1  2  2  0  0  0
  3 18  2  0  0  0
  4 17  2  0  0  0
  5  6  2  0  0  0
  7 27  2  0  0  0
  8 21  2  0  0  0
  9 28  2  0  0  0
 10 29  2  0  0  0
 19 20  2  0  0  0
M  CHG  1  26  -1
M  END
> <rmsd>
0.193589628

$$$$
ZINC03830413


 33 36  0  0  0  0  0  0  0  0999 V2000
   -2.2557   -1.1549   -0.9588 C   0  0  0  0  0
   -3.1567   -0.4825   -0.1599 C   0  0  0  0  0
    7.7801   -1.0601    1.3017 C   0  0  0  0  0
   -4.1212   -2.4522   -0.1590 C   0  0  0  0  0
    3.2681    0.4389   -0.1120 C   0  0  0  0  0
    3.8147   -0.0252    1.0369 C   0  0  0  0  0
    1.2560    1.7365   -0.9538 C   0  0  0  0  0
   -3.0265    0.9535    0.2065 C   0  0  0  0  0
    3.8100   -0.0310   -1.4570 C   0  0  0  0  0
   -1.8491    1.7341   -0.3159 C   0  0  0  0  0
    3.2262    0.2517    2.4185 C   0  0  0  0  0
    0.4834    2.3495    0.2491 C   0  0  0  0  0
    1.7287    1.9725    1.0807 C   0  0  0  0  0
    9.7670    0.5033    1.4980 C   0  0  0  0  0
   -4.6020    3.4258    2.0333 C   0  0  0  0  0
    5.0518   -0.8868    1.1032 C   0  0  0  0  0
   -4.2273   -1.2246    0.2993 N   0  0  0  0  0
    7.6393   -2.3647    1.2516 N   0  0  0  0  0
    8.9136   -2.8790    1.3333 N   0  0  0  0  0
    9.8143   -1.9088    1.4303 N   0  0  0  0  0
   -3.9068    1.5286    0.9692 N   0  0  0  0  0
    9.1033   -0.7728    1.4104 N   0  0  0  0  0
    2.1937    1.2694   -0.1012 N   0  0  0  0  0
   -5.0104   -3.4468    0.1017 N   0  0  0  0  0
   -0.7815    1.6744    0.5358 N   0  0  0  0  0
    3.2523   -1.0613   -1.9172 O   0  0  0  0  0
    1.0794    1.6282   -2.1446 O   0  0  0  0  0
    4.7412    0.6755   -1.9240 O   0  0  0  0  0
   -1.9660    2.3043   -1.3886 O   0  0  0  0  0
   -3.5960    2.8765    1.1964 O   0  0  0  0  0
   -2.7583   -2.7836   -1.1478 S   0  0  0  0  0
    1.4761    0.7696    2.4057 S   0  0  0  0  0
    6.5060    0.1657    1.2436 S   0  0  0  0  0
  1 31  1  0  0  0
  2  8  1  0  0  0
  2 17  1  0  0  0
  3 22  1  0  0  0
  3 33  1  0  0  0
  4 24  1  0  0  0
  4 31  1  0  0  0
  5  9  1  0  0  0
  5 23  1  0  0  0
  7 23  1  0  0  0
  8 10  1  0  0  0
  9 26  1  0  0  0
 10 25  1  0  0  0
 11  6  1  0  0  0
 11 32  1  0  0  0
 12  7  1  0  0  0
 12 13  1  0  0  0
 12 25  1  0  0  0
 13 23  1  0  0  0
 13 32  1  0  0  0
 14 22  1  0  0  0
 15 30  1  0  0  0
 16  6  1  0  0  0
 16 33  1  0  0  0
 18 19  1  0  0  0
 21 30  1  0  0  0
 22 20  1  0  0  0
  1  2  2  0  0  0
  3 18  2  0  0  0
  4 17  2  0  0  0
  5  6  2  0  0  0
  7 27  2  0  0  0
  8 21  2  0  0  0
  9 28  2  0  0  0
 10 29  2  0  0  0
 19 20  2  0  0  0
M  CHG  1  26  -1
M  END
> <rmsd>
0.359841675

$$$$
ZINC03830413


 33 36  0  0  0  0  0  0  0  0999 V2000
   -2.5782   -1.2645   -0.8724 C   0  0  0  0  0
   -3.3842   -0.4822   -0.0721 C   0  0  0  0  0
    7.5036   -2.0006    1.0380 C   0  0  0  0  0
   -4.5213   -2.3539    0.0442 C   0  0  0  0  0
    3.0946   -0.1511   -0.2824 C   0  0  0  0  0
    3.6403   -0.6185    0.8656 C   0  0  0  0  0
    1.1770    1.2916   -1.1085 C   0  0  0  0  0
   -3.1115    0.9489    0.2291 C   0  0  0  0  0
    3.5408   -0.7201   -1.6242 C   0  0  0  0  0
   -1.8893    1.5978   -0.3655 C   0  0  0  0  0
    3.1318   -0.2358    2.2538 C   0  0  0  0  0
    0.5088    2.0187    0.0932 C   0  0  0  0  0
    1.7457    1.5618    0.8969 C   0  0  0  0  0
    9.6292   -0.6191    1.1007 C   0  0  0  0  0
   -4.3879    3.6237    2.0035 C   0  0  0  0  0
    4.7964   -1.5864    0.9257 C   0  0  0  0  0
   -4.4991   -1.1050    0.4541 N   0  0  0  0  0
    7.2442   -3.2879    1.0475 N   0  0  0  0  0
    8.4692   -3.9130    1.1071 N   0  0  0  0  0
    9.4566   -3.0263    1.1325 N   0  0  0  0  0
   -3.9070    1.6312    0.9966 N   0  0  0  0  0
    8.8505   -1.8316    1.0893 N   0  0  0  0  0
    2.1005    0.7740   -0.2697 N   0  0  0  0  0
   -5.4860   -3.2522    0.3766 N   0  0  0  0  0
   -0.8000    1.4737    0.4510 N   0  0  0  0  0
    2.8756   -1.7121   -2.0215 O   0  0  0  0  0
    0.9466    1.1540   -2.2871 O   0  0  0  0  0
    4.5135   -0.1203   -2.1519 O   0  0  0  0  0
   -1.9949    2.1345   -1.4565 O   0  0  0  0  0
   -3.4679    2.9527    1.1564 O   0  0  0  0  0
   -3.2322   -2.8465   -0.9758 S   0  0  0  0  0
    1.4362    0.4391    2.2790 S   0  0  0  0  0
    6.3437   -0.6667    0.9722 S   0  0  0  0  0
  1 31  1  0  0  0
  2  8  1  0  0  0
  2 17  1  0  0  0
  3 22  1  0  0  0
  3 33  1  0  0  0
  4 24  1  0  0  0
  4 31  1  0  0  0
  5  9  1  0  0  0
  5 23  1  0  0  0
  7 23  1  0  0  0
  8 10  1  0  0  0
  9 26  1  0  0  0
 10 25  1  0  0  0
 11  6  1  0  0  0
 11 32  1  0  0  0
 12  7  1  0  0  0
 12 13  1  0  0  0
 12 25  1  0  0  0
 13 23  1  0  0  0
 13 32  1  0  0  0
 14 22  1  0  0  0
 15 30  1  0  0  0
 16  6  1  0  0  0
 16 33  1  0  0  0
 18 19  1  0  0  0
 21 30  1  0  0  0
 22 20  1  0  0  0
  1  2  2  0  0  0
  3 18  2  0  0  0
  4 17  2  0  0  0
  5  6  2  0  0  0
  7 27  2  0  0  0
  8 21  2  0  0  0
  9 28  2  0  0  0
 10 29  2  0  0  0
 19 20  2  0  0  0
M  CHG  1  26  -1
M  END
> <rmsd>
0.0605660677

$$$$
ZINC04215275


 32 35  0  0  0  0  0  0  0  0999 V2000
    6.9005   -3.8410    0.5127 C   0  0  0  0  0
   -4.4871   -1.1675    0.4478 C   0  0  0  0  0
   -3.4005   -0.4796   -0.0501 C   0  0  0  0  0
    5.6620   -4.1863    1.0155 C   0  0  0  0  0
   -2.9977   -2.4345   -0.9590 C   0  0  0  0  0
    3.0782   -0.1616   -0.2846 C   0  0  0  0  0
    3.6269   -0.6223    0.8646 C   0  0  0  0  0
    1.1604    1.2791   -1.1137 C   0  0  0  0  0
   -3.1242    0.9530    0.2408 C   0  0  0  0  0
    3.5188   -0.7402   -1.6242 C   0  0  0  0  0
   -1.9028    1.5957   -0.3622 C   0  0  0  0  0
    3.1239   -0.2296    2.2519 C   0  0  0  0  0
    0.4976    2.0153    0.0855 C   0  0  0  0  0
    1.7363    1.5615    0.8880 C   0  0  0  0  0
   -4.3898    3.6416    2.0018 C   0  0  0  0  0
    4.7816   -1.5920    0.9271 C   0  0  0  0  0
    7.9103   -4.7661    0.7259 N   0  0  0  0  0
   -2.5451   -1.2046   -0.8567 N   0  0  0  0  0
    7.4683   -5.8235    1.3879 N   0  0  0  0  0
   -3.9159    1.6417    1.0065 N   0  0  0  0  0
    2.0858    0.7654   -0.2746 N   0  0  0  0  0
   -2.3944   -3.4153   -1.6813 N   0  0  0  0  0
   -0.8110    1.4750    0.4514 N   0  0  0  0  0
    2.8505   -1.7336   -2.0126 O   0  0  0  0  0
    0.9257    1.1341   -2.2905 O   0  0  0  0  0
    4.4907   -0.1457   -2.1591 O   0  0  0  0  0
   -2.0112    2.1254   -1.4564 O   0  0  0  0  0
   -3.4738    2.9635    1.1560 O   0  0  0  0  0
   -4.4475   -2.7883   -0.1115 S   0  0  0  0  0
    5.8386   -5.7212    1.7621 S   0  0  0  0  0
    1.4296    0.4485    2.2785 S   0  0  0  0  0
    4.1464   -3.2769    0.9415 S   0  0  0  0  0
  1 17  1  0  0  0
  2 29  1  0  0  0
  3  9  1  0  0  0
  3 18  1  0  0  0
  4 30  1  0  0  0
  4 32  1  0  0  0
  5 22  1  0  0  0
  5 29  1  0  0  0
  6 10  1  0  0  0
  6 21  1  0  0  0
  8 21  1  0  0  0
  9 11  1  0  0  0
 10 24  1  0  0  0
 11 23  1  0  0  0
 12  7  1  0  0  0
 12 31  1  0  0  0
 13  8  1  0  0  0
 13 14  1  0  0  0
 13 23  1  0  0  0
 14 21  1  0  0  0
 14 31  1  0  0  0
 15 28  1  0  0  0
 16  7  1  0  0  0
 16 32  1  0  0  0
 19 30  1  0  0  0
 20 28  1  0  0  0
  1  4  2  0  0  0
  2  3  2  0  0  0
  5 18  2  0  0  0
  6  7  2  0  0  0
  8 25  2  0  0  0
  9 20  2  0  0  0
 10 26  2  0  0  0
 11 27  2  0  0  0
 17 19  2  0  0  0
M  CHG  1  24  -1
M  END
> <rmsd>
0.102891877

$$$$
ZINC04215275


 32 35  0  0  0  0  0  0  0  0999 V2000
    7.3678   -2.9214    0.6752 C   0  0  0  0  0
   -4.2084   -1.2863    0.2909 C   0  0  0  0  0
   -3.1734   -0.4827   -0.1391 C   0  0  0  0  0
    6.1499   -3.3980    1.1177 C   0  0  0  0  0
   -2.5629   -2.3531   -1.1079 C   0  0  0  0  0
    3.2530    0.4284   -0.1197 C   0  0  0  0  0
    3.8029   -0.0291    1.0303 C   0  0  0  0  0
    1.2401    1.7239   -0.9628 C   0  0  0  0  0
   -3.0396    0.9554    0.2176 C   0  0  0  0  0
    3.7894   -0.0510   -1.4635 C   0  0  0  0  0
   -1.8628    1.7307   -0.3141 C   0  0  0  0  0
    3.2197    0.2577    2.4122 C   0  0  0  0  0
    0.4727    2.3460    0.2387 C   0  0  0  0  0
    1.7203    1.9723    1.0685 C   0  0  0  0  0
   -4.6046    3.4421    2.0338 C   0  0  0  0  0
    5.0388   -0.8923    1.0979 C   0  0  0  0  0
    8.4504   -3.7597    0.8896 N   0  0  0  0  0
   -2.2286   -1.0928   -0.9409 N   0  0  0  0  0
    8.0853   -4.8797    1.4929 N   0  0  0  0  0
   -3.9163    1.5370    0.9795 N   0  0  0  0  0
    2.1800    1.2608   -0.1105 N   0  0  0  0  0
   -1.8482   -3.2441   -1.8450 N   0  0  0  0  0
   -0.7923    1.6748    0.5343 N   0  0  0  0  0
    3.2285   -1.0834   -1.9150 O   0  0  0  0  0
    1.0592    1.6081   -2.1522 O   0  0  0  0  0
    4.7202    0.6509   -1.9382 O   0  0  0  0  0
   -1.9825    2.2942   -1.3900 O   0  0  0  0  0
   -3.6025    2.8857    1.1969 O   0  0  0  0  0
   -4.0017   -2.8718   -0.3295 S   0  0  0  0  0
    6.4414   -4.9408    1.8099 S   0  0  0  0  0
    1.4705    0.7784    2.4021 S   0  0  0  0  0
    4.5607   -2.6268    1.0229 S   0  0  0  0  0
  1 17  1  0  0  0
  2 29  1  0  0  0
  3  9  1  0  0  0
  3 18  1  0  0  0
  4 30  1  0  0  0
  4 32  1  0  0  0
  5 22  1  0  0  0
  5 29  1  0  0  0
  6 10  1  0  0  0
  6 21  1  0  0  0
  8 21  1  0  0  0
  9 11  1  0  0  0
 10 24  1  0  0  0
 11 23  1  0  0  0
 12  7  1  0  0  0
 12 31  1  0  0  0
 13  8  1  0  0  0
 13 14  1  0  0  0
 13 23  1  0  0  0
 14 21  1  0  0  0
 14 31  1  0  0  0
 15 28  1  0  0  0
 16  7  1  0  0  0
 16 32  1  0  0  0
 19 30  1  0  0  0
 20 28  1  0  0  0
  1  4  2  0  0  0
  2  3  2  0  0  0
  5 18  2  0  0  0
  6  7  2  0  0  0
  8 25  2  0  0  0
  9 20  2  0  0  0
 10 26  2  0  0  0
 11 27  2  0  0  0
 17 19  2  0  0  0
M  CHG  1  24  -1
M  END
> <rmsd>
0.402820826

$$$$
ZINC04215275


 32 35  0  0  0  0  0  0  0  0999 V2000
    6.9213   -3.8291    0.5036 C   0  0  0  0  0
   -2.5778   -1.2650   -0.8726 C   0  0  0  0  0
   -3.3838   -0.4826   -0.0723 C   0  0  0  0  0
    5.6817   -4.1799    0.9999 C   0  0  0  0  0
   -4.5209   -2.3544    0.0441 C   0  0  0  0  0
    3.0950   -0.1514   -0.2826 C   0  0  0  0  0
    3.6407   -0.6187    0.8654 C   0  0  0  0  0
    1.1774    1.2912   -1.1088 C   0  0  0  0  0
   -3.1112    0.9485    0.2289 C   0  0  0  0  0
    3.5412   -0.7205   -1.6245 C   0  0  0  0  0
   -1.8890    1.5974   -0.3657 C   0  0  0  0  0
    3.1322   -0.2360    2.2535 C   0  0  0  0  0
    0.5091    2.0184    0.0929 C   0  0  0  0  0
    1.7460    1.5615    0.8966 C   0  0  0  0  0
   -4.3876    3.6233    2.0032 C   0  0  0  0  0
    4.7968   -1.5867    0.9255 C   0  0  0  0  0
    7.9320   -4.7537    0.7141 N   0  0  0  0  0
   -4.4987   -1.1055    0.4539 N   0  0  0  0  0
    7.4897   -5.8162    1.3677 N   0  0  0  0  0
   -3.9067    1.6308    0.9964 N   0  0  0  0  0
    2.1009    0.7736   -0.2700 N   0  0  0  0  0
   -5.4855   -3.2527    0.3766 N   0  0  0  0  0
   -0.7996    1.4733    0.4508 N   0  0  0  0  0
    2.8760   -1.7125   -2.0217 O   0  0  0  0  0
    0.9469    1.1535   -2.2873 O   0  0  0  0  0
    4.5138   -0.1207   -2.1521 O   0  0  0  0  0
   -1.9946    2.1340   -1.4568 O   0  0  0  0  0
   -3.4675    2.9523    1.1561 O   0  0  0  0  0
   -3.2318   -2.8470   -0.9759 S   0  0  0  0  0
    5.8585   -5.7194    1.7370 S   0  0  0  0  0
    1.4366    0.4389    2.2788 S   0  0  0  0  0
    4.1647   -3.2728    0.9266 S   0  0  0  0  0
  1 17  1  0  0  0
  2 29  1  0  0  0
  3  9  1  0  0  0
  3 18  1  0  0  0
  4 30  1  0  0  0
  4 32  1  0  0  0
  5 22  1  0  0  0
  5 29  1  0  0  0
  6 10  1  0  0  0
  6 21  1  0  0  0
  8 21  1  0  0  0
  9 11  1  0  0  0
 10 24  1  0  0  0
 11 23  1  0  0  0
 12  7  1  0  0  0
 12 31  1  0  0  0
 13  8  1  0  0  0
 13 14  1  0  0  0
 13 23  1  0  0  0
 14 21  1  0  0  0
 14 31  1  0  0  0
 15 28  1  0  0  0
 16  7  1  0  0  0
 16 32  1  0  0  0
 19 30  1  0  0  0
 20 28  1  0  0  0
  1  4  2  0  0  0
  2  3  2  0  0  0
  5 18  2  0  0  0
  6  7  2  0  0  0
  8 25  2  0  0  0
  9 20  2  0  0  0
 10 26  2  0  0  0
 11 27  2  0  0  0
 17 19  2  0  0  0
M  CHG  1  24  -1
M  END
> <rmsd>
0.0604227521

$$$$
ZINC04215275


 32 35  0  0  0  0  0  0  0  0999 V2000
    7.3860   -2.9095    0.6753 C   0  0  0  0  0
   -2.2553   -1.1553   -0.9589 C   0  0  0  0  0
   -3.1563   -0.4829   -0.1600 C   0  0  0  0  0
    6.1674   -3.3910    1.1104 C   0  0  0  0  0
   -4.1207   -2.4526   -0.1591 C   0  0  0  0  0
    3.2685    0.4386   -0.1123 C   0  0  0  0  0
    3.8151   -0.0254    1.0366 C   0  0  0  0  0
    1.2563    1.7362   -0.9541 C   0  0  0  0  0
   -3.0261    0.9531    0.2063 C   0  0  0  0  0
    3.8104   -0.0313   -1.4573 C   0  0  0  0  0
   -1.8487    1.7337   -0.3162 C   0  0  0  0  0
    3.2267    0.2515    2.4183 C   0  0  0  0  0
    0.4837    2.3492    0.2487 C   0  0  0  0  0
    1.7291    1.9722    1.0804 C   0  0  0  0  0
   -4.6016    3.4255    2.0331 C   0  0  0  0  0
    5.0522   -0.8870    1.1029 C   0  0  0  0  0
    8.4693   -3.7474    0.8881 N   0  0  0  0  0
   -4.2268   -1.2250    0.2992 N   0  0  0  0  0
    8.1039   -4.8719    1.4828 N   0  0  0  0  0
   -3.9064    1.5283    0.9690 N   0  0  0  0  0
    2.1941    1.2691   -0.1015 N   0  0  0  0  0
   -5.0099   -3.4472    0.1017 N   0  0  0  0  0
   -0.7811    1.6740    0.5355 N   0  0  0  0  0
    3.2527   -1.0616   -1.9174 O   0  0  0  0  0
    1.0798    1.6278   -2.1449 O   0  0  0  0  0
    4.7416    0.6752   -1.9243 O   0  0  0  0  0
   -1.9657    2.3039   -1.3889 O   0  0  0  0  0
   -3.5956    2.8761    1.1961 O   0  0  0  0  0
   -2.7579   -2.7840   -1.1479 S   0  0  0  0  0
    6.4591   -4.9378    1.7937 S   0  0  0  0  0
    1.4766    0.7694    2.4054 S   0  0  0  0  0
    4.5773   -2.6218    1.0150 S   0  0  0  0  0
  1 17  1  0  0  0
  2 29  1  0  0  0
  3  9  1  0  0  0
  3 18  1  0  0  0
  4 30  1  0  0  0
  4 32  1  0  0  0
  5 22  1  0  0  0
  5 29  1  0  0  0
  6 10  1  0  0  0
  6 21  1  0  0  0
  8 21  1  0  0  0
  9 11  1  0  0  0
 10 24  1  0  0  0
 11 23  1  0  0  0
 12  7  1  0  0  0
 12 31  1  0  0  0
 13  8  1  0  0  0
 13 14  1  0  0  0
 13 23  1  0  0  0
 14 21  1  0  0  0
 14 31  1  0  0  0
 15 28  1  0  0  0
 16  7  1  0  0  0
 16 32  1  0  0  0
 19 30  1  0  0  0
 20 28  1  0  0  0
  1  4  2  0  0  0
  2  3  2  0  0  0
  5 18  2  0  0  0
  6  7  2  0  0  0
  8 25  2  0  0  0
  9 20  2  0  0  0
 10 26  2  0  0  0
 11 27  2  0  0  0
 17 19  2  0  0  0
M  CHG  1  24  -1
M  END
> <rmsd>
0.360020667

$$$$
ZINC04215275


 32 35  0  0  0  0  0  0  0  0999 V2000
    7.3675   -3.2853    0.5166 C   0  0  0  0  0
   -4.4868   -1.1682    0.4476 C   0  0  0  0  0
   -3.4003   -0.4802   -0.0505 C   0  0  0  0  0
    7.4887   -2.0103    1.0323 C   0  0  0  0  0
   -2.9975   -2.4352   -0.9592 C   0  0  0  0  0
    3.0784   -0.1620   -0.2853 C   0  0  0  0  0
    3.6272   -0.6226    0.8639 C   0  0  0  0  0
    1.1605    1.2786   -1.1145 C   0  0  0  0  0
   -3.1240    0.9524    0.2402 C   0  0  0  0  0
    3.5189   -0.7407   -1.6248 C   0  0  0  0  0
   -1.9027    1.5951   -0.3630 C   0  0  0  0  0
    3.1242   -0.2297    2.2512 C   0  0  0  0  0
    0.4977    2.0149    0.0846 C   0  0  0  0  0
    1.7365    1.5612    0.8871 C   0  0  0  0  0
   -4.3896    3.6412    2.0009 C   0  0  0  0  0
    4.7819   -1.5921    0.9265 C   0  0  0  0  0
    8.4510   -4.1221    0.7325 N   0  0  0  0  0
   -2.5449   -1.2053   -0.8570 N   0  0  0  0  0
    9.4098   -3.5100    1.4092 N   0  0  0  0  0
   -3.9157    1.6412    1.0059 N   0  0  0  0  0
    2.0859    0.7649   -0.2754 N   0  0  0  0  0
   -2.3941   -3.4161   -1.6814 N   0  0  0  0  0
   -0.8108    1.4745    0.4506 N   0  0  0  0  0
    2.8507   -1.7342   -2.0131 O   0  0  0  0  0
    0.9257    1.1334   -2.2913 O   0  0  0  0  0
    4.4908   -0.1462   -2.1599 O   0  0  0  0  0
   -2.0112    2.1247   -1.4572 O   0  0  0  0  0
   -3.4737    2.9630    1.1552 O   0  0  0  0  0
   -4.4472   -2.7890   -0.1116 S   0  0  0  0  0
    9.0239   -1.9261    1.7942 S   0  0  0  0  0
    1.4299    0.4483    2.2778 S   0  0  0  0  0
    6.3309   -0.6748    0.9615 S   0  0  0  0  0
  1 17  1  0  0  0
  2 29  1  0  0  0
  3  9  1  0  0  0
  3 18  1  0  0  0
  4 30  1  0  0  0
  4 32  1  0  0  0
  5 22  1  0  0  0
  5 29  1  0  0  0
  6 10  1  0  0  0
  6 21  1  0  0  0
  8 21  1  0  0  0
  9 11  1  0  0  0
 10 24  1  0  0  0
 11 23  1  0  0  0
 12  7  1  0  0  0
 12 31  1  0  0  0
 13  8  1  0  0  0
 13 14  1  0  0  0
 13 23  1  0  0  0
 14 21  1  0  0  0
 14 31  1  0  0  0
 15 28  1  0  0  0
 16  7  1  0  0  0
 16 32  1  0  0  0
 19 30  1  0  0  0
 20 28  1  0  0  0
  1  4  2  0  0  0
  2  3  2  0  0  0
  5 18  2  0  0  0
  6  7  2  0  0  0
  8 25  2  0  0  0
  9 20  2  0  0  0
 10 26  2  0  0  0
 11 27  2  0  0  0
 17 19  2  0  0  0
M  CHG  1  24  -1
M  END
> <rmsd>
0.102791622

$$$$
ZINC04215275


 32 35  0  0  0  0  0  0  0  0999 V2000
    7.7814   -2.3264    0.7180 C   0  0  0  0  0
   -4.2081   -1.2869    0.2906 C   0  0  0  0  0
   -3.1731   -0.4833   -0.1395 C   0  0  0  0  0
    7.7679   -1.0686    1.2871 C   0  0  0  0  0
   -2.5625   -2.3538   -1.1081 C   0  0  0  0  0
    3.2532    0.4281   -0.1205 C   0  0  0  0  0
    3.8032   -0.0292    1.0295 C   0  0  0  0  0
    1.2402    1.7234   -0.9637 C   0  0  0  0  0
   -3.0393    0.9549    0.2170 C   0  0  0  0  0
    3.7896   -0.0514   -1.4643 C   0  0  0  0  0
   -1.8626    1.7301   -0.3148 C   0  0  0  0  0
    3.2201    0.2577    2.4114 C   0  0  0  0  0
    0.4728    2.3456    0.2378 C   0  0  0  0  0
    1.7205    1.9721    1.0676 C   0  0  0  0  0
   -4.6045    3.4417    2.0329 C   0  0  0  0  0
    5.0391   -0.8923    1.0971 C   0  0  0  0  0
    8.9292   -3.0703    0.9412 N   0  0  0  0  0
   -2.2283   -1.0934   -0.9413 N   0  0  0  0  0
    9.8047   -2.4033    1.6765 N   0  0  0  0  0
   -3.9160    1.5364    0.9789 N   0  0  0  0  0
    2.1802    1.2604   -0.1114 N   0  0  0  0  0
   -1.8479   -3.2448   -1.8451 N   0  0  0  0  0
   -0.7921    1.6743    0.5335 N   0  0  0  0  0
    3.2287   -1.0839   -1.9156 O   0  0  0  0  0
    1.0592    1.6075   -2.1531 O   0  0  0  0  0
    4.7203    0.6505   -1.9391 O   0  0  0  0  0
   -1.9824    2.2935   -1.3908 O   0  0  0  0  0
   -3.6023    2.8852    1.1961 O   0  0  0  0  0
   -4.0013   -2.8724   -0.3296 S   0  0  0  0  0
    9.2625   -0.8784    2.1084 S   0  0  0  0  0
    1.4708    0.7783    2.4013 S   0  0  0  0  0
    6.4955    0.1588    1.2255 S   0  0  0  0  0
  1 17  1  0  0  0
  2 29  1  0  0  0
  3  9  1  0  0  0
  3 18  1  0  0  0
  4 30  1  0  0  0
  4 32  1  0  0  0
  5 22  1  0  0  0
  5 29  1  0  0  0
  6 10  1  0  0  0
  6 21  1  0  0  0
  8 21  1  0  0  0
  9 11  1  0  0  0
 10 24  1  0  0  0
 11 23  1  0  0  0
 12  7  1  0  0  0
 12 31  1  0  0  0
 13  8  1  0  0  0
 13 14  1  0  0  0
 13 23  1  0  0  0
 14 21  1  0  0  0
 14 31  1  0  0  0
 15 28  1  0  0  0
 16  7  1  0  0  0
 16 32  1  0  0  0
 19 30  1  0  0  0
 20 28  1  0  0  0
  1  4  2  0  0  0
  2  3  2  0  0  0
  5 18  2  0  0  0
  6  7  2  0  0  0
  8 25  2  0  0  0
  9 20  2  0  0  0
 10 26  2  0  0  0
 11 27  2  0  0  0
 17 19  2  0  0  0
M  CHG  1  24  -1
M  END
> <rmsd>
0.402635664

$$$$
ZINC11616472


 32 35  0  0  0  0  0  0  0  0999 V2000
    8.7108   -0.3778   -0.4981 C   0  0  0  0  0
   -4.4556   -1.1956    0.4304 C   0  0  0  0  0
   -3.4026   -0.4586   -0.0694 C   0  0  0  0  0
    8.4396    0.9731   -0.4107 C   0  0  0  0  0
   -2.9622   -2.3700   -1.0505 C   0  0  0  0  0
    3.4842    0.8356   -0.5827 C   0  0  0  0  0
    4.4114    1.0119    0.3882 C   0  0  0  0  0
    1.0999    1.4658   -1.1627 C   0  0  0  0  0
   -3.1632    0.9720    0.2617 C   0  0  0  0  0
    3.8856    0.2342   -1.9241 C   0  0  0  0  0
   -1.9768    1.6715   -0.3475 C   0  0  0  0  0
    4.1254    1.7364    1.7036 C   0  0  0  0  0
    0.4197    2.1513    0.0591 C   0  0  0  0  0
    1.6255    1.6203    0.8652 C   0  0  0  0  0
   -4.4681    3.5622    2.1379 C   0  0  0  0  0
    5.8342    0.5150    0.3068 C   0  0  0  0  0
   10.0527   -0.7215   -0.4519 N   0  0  0  0  0
   -2.5448   -1.1303   -0.9184 N   0  0  0  0  0
   10.8236    0.3474   -0.3301 N   0  0  0  0  0
   -3.9572    1.6108    1.0673 N   0  0  0  0  0
    2.2057    1.2628   -0.4155 N   0  0  0  0  0
   -2.3463   -3.3078   -1.8181 N   0  0  0  0  0
   -0.8615    1.5596    0.4363 N   0  0  0  0  0
    3.8012   -1.0204   -1.9840 O   0  0  0  0  0
    0.8193    1.2559   -2.3193 O   0  0  0  0  0
    4.2468    1.0739   -2.7897 O   0  0  0  0  0
   -2.1272    2.2322   -1.4211 O   0  0  0  0  0
   -3.5523    2.9403    1.2499 O   0  0  0  0  0
   -4.3799   -2.7956   -0.1824 S   0  0  0  0  0
    9.9498    1.7753   -0.2691 S   0  0  0  0  0
    2.6831    2.8546    1.6503 S   0  0  0  0  0
    6.8702    1.7889   -0.4321 S   0  0  0  0  0
  1 17  1  0  0  0
  2 29  1  0  0  0
  3  9  1  0  0  0
  3 18  1  0  0  0
  4 30  1  0  0  0
  4 32  1  0  0  0
  5 22  1  0  0  0
  5 29  1  0  0  0
  6 10  1  0  0  0
  6 21  1  0  0  0
  8 21  1  0  0  0
  9 11  1  0  0  0
 10 24  1  0  0  0
 11 23  1  0  0  0
 12  7  1  0  0  0
 12 31  1  0  0  0
 13  8  1  0  0  0
 13 14  1  0  0  0
 13 23  1  0  0  0
 14 21  1  0  0  0
 14 31  1  0  0  0
 15 28  1  0  0  0
 16  7  1  0  0  0
 16 32  1  0  0  0
 19 30  1  0  0  0
 20 28  1  0  0  0
  1  4  2  0  0  0
  2  3  2  0  0  0
  5 18  2  0  0  0
  6  7  2  0  0  0
  8 25  2  0  0  0
  9 20  2  0  0  0
 10 26  2  0  0  0
 11 27  2  0  0  0
 17 19  2  0  0  0
M  CHG  1  24  -1
M  END
> <rmsd>
0.193326607

$$$$
ZINC11616472


 32 35  0  0  0  0  0  0  0  0999 V2000
    8.5377   -1.5105   -0.1171 C   0  0  0  0  0
   -4.6628   -1.0750    0.5473 C   0  0  0  0  0
   -3.5384   -0.4744    0.0211 C   0  0  0  0  0
    8.3892   -0.1381   -0.1346 C   0  0  0  0  0
   -3.2566   -2.4853   -0.8076 C   0  0  0  0  0
    3.4456    0.1562   -0.4168 C   0  0  0  0  0
    4.3677    0.3205    0.5611 C   0  0  0  0  0
    1.1393    0.9523   -1.0989 C   0  0  0  0  0
   -3.1756    0.9496    0.2532 C   0  0  0  0  0
    3.8142   -0.5770   -1.7008 C   0  0  0  0  0
   -1.9198    1.4928   -0.3761 C   0  0  0  0  0
    4.1257    1.1637    1.8130 C   0  0  0  0  0
    0.5028    1.7851    0.0529 C   0  0  0  0  0
    1.6408    1.2098    0.9245 C   0  0  0  0  0
   -4.2722    3.7788    1.9041 C   0  0  0  0  0
    5.7406   -0.3064    0.5506 C   0  0  0  0  0
    9.8417   -1.9686   -0.0134 N   0  0  0  0  0
   -2.7305   -1.2816   -0.7557 N   0  0  0  0  0
   10.7045   -0.9669    0.0493 N   0  0  0  0  0
   -3.9223    1.7152    0.9907 N   0  0  0  0  0
    2.2086    0.7074   -0.3123 N   0  0  0  0  0
   -2.7152   -3.5291   -1.4899 N   0  0  0  0  0
   -0.8334    1.3402    0.4407 N   0  0  0  0  0
    3.6171   -1.8200   -1.6716 O   0  0  0  0  0
    0.8612    0.6828   -2.2437 O   0  0  0  0  0
    4.2657    0.1601   -2.6160 O   0  0  0  0  0
   -1.9995    1.9831   -1.4909 O   0  0  0  0  0
   -3.4013    3.0129    1.0862 O   0  0  0  0  0
   -4.7224   -2.7165    0.0543 S   0  0  0  0  0
    9.9634    0.5341   -0.0148 S   0  0  0  0  0
    2.7923    2.3995    1.6435 S   0  0  0  0  0
    6.9012    0.8111   -0.2534 S   0  0  0  0  0
  1 17  1  0  0  0
  2 29  1  0  0  0
  3  9  1  0  0  0
  3 18  1  0  0  0
  4 30  1  0  0  0
  4 32  1  0  0  0
  5 22  1  0  0  0
  5 29  1  0  0  0
  6 10  1  0  0  0
  6 21  1  0  0  0
  8 21  1  0  0  0
  9 11  1  0  0  0
 10 24  1  0  0  0
 11 23  1  0  0  0
 12  7  1  0  0  0
 12 31  1  0  0  0
 13  8  1  0  0  0
 13 14  1  0  0  0
 13 23  1  0  0  0
 14 21  1  0  0  0
 14 31  1  0  0  0
 15 28  1  0  0  0
 16  7  1  0  0  0
 16 32  1  0  0  0
 19 30  1  0  0  0
 20 28  1  0  0  0
  1  4  2  0  0  0
  2  3  2  0  0  0
  5 18  2  0  0  0
  6  7  2  0  0  0
  8 25  2  0  0  0
  9 20  2  0  0  0
 10 26  2  0  0  0
 11 27  2  0  0  0
 17 19  2  0  0  0
M  CHG  1  24  -1
M  END
> <rmsd>
0.166607276

$$$$
ZINC03922077


 35 39  0  0  0  0  0  0  0  0999 V2000
    7.6836    1.5153    2.0364 C   0  0  0  0  0
    7.9741    1.1330    3.3470 C   0  0  0  0  0
    6.7109    0.8227    1.3104 C   0  0  0  0  0
   -4.2083   -1.2863    0.2906 C   0  0  0  0  0
    7.2861    0.0615    3.8796 C   0  0  0  0  0
   -3.1732   -0.4828   -0.1392 C   0  0  0  0  0
    6.3282   -0.5900    3.1171 C   0  0  0  0  0
   -2.5628   -2.3534   -1.1080 C   0  0  0  0  0
    3.2532    0.4277   -0.1197 C   0  0  0  0  0
    3.8031   -0.0299    1.0304 C   0  0  0  0  0
    1.2405    1.7233   -0.9629 C   0  0  0  0  0
   -3.0392    0.9553    0.2173 C   0  0  0  0  0
    3.7897   -0.0519   -1.4634 C   0  0  0  0  0
   -1.8623    1.7304   -0.3142 C   0  0  0  0  0
    7.3627   -0.5384    5.2445 C   0  0  0  0  0
    5.6536   -1.6887    3.8679 C   0  0  0  0  0
    3.2200    0.2570    2.4123 C   0  0  0  0  0
    6.6575   -1.8903    5.0163 C   0  0  0  0  0
    0.4731    2.3454    0.2386 C   0  0  0  0  0
    1.7207    1.9717    1.0684 C   0  0  0  0  0
   -4.6041    3.4422    2.0335 C   0  0  0  0  0
    5.0389   -0.8933    1.0980 C   0  0  0  0  0
   -2.2284   -1.0930   -0.9410 N   0  0  0  0  0
   -3.9159    1.5369    0.9792 N   0  0  0  0  0
    6.0557   -0.2074    1.8708 N   0  0  0  0  0
    2.1804    1.2601   -0.1105 N   0  0  0  0  0
   -1.8482   -3.2444   -1.8451 N   0  0  0  0  0
   -0.7919    1.6744    0.5342 N   0  0  0  0  0
    3.2287   -1.0842   -1.9149 O   0  0  0  0  0
    1.0596    1.6076   -2.1523 O   0  0  0  0  0
    4.7205    0.6499   -1.9382 O   0  0  0  0  0
   -1.9820    2.2939   -1.3903 O   0  0  0  0  0
   -3.6020    2.8857    1.1967 O   0  0  0  0  0
   -4.0017   -2.8718   -0.3296 S   0  0  0  0  0
    1.4706    0.7778    2.4021 S   0  0  0  0  0
  1  2  1  0  0  0
  3 25  1  0  0  0
  4 34  1  0  0  0
  5  7  1  0  0  0
  6 12  1  0  0  0
  6 23  1  0  0  0
  8 27  1  0  0  0
  8 34  1  0  0  0
  9 13  1  0  0  0
  9 26  1  0  0  0
 11 26  1  0  0  0
 12 14  1  0  0  0
 13 29  1  0  0  0
 14 28  1  0  0  0
 15  5  1  0  0  0
 15 18  1  0  0  0
 16  7  1  0  0  0
 16 18  1  0  0  0
 17 10  1  0  0  0
 17 35  1  0  0  0
 19 11  1  0  0  0
 19 20  1  0  0  0
 19 28  1  0  0  0
 20 26  1  0  0  0
 20 35  1  0  0  0
 21 33  1  0  0  0
 22 10  1  0  0  0
 22 25  1  0  0  0
 24 33  1  0  0  0
  1  3  2  0  0  0
  2  5  2  0  0  0
  4  6  2  0  0  0
  7 25  2  0  0  0
  8 23  2  0  0  0
  9 10  2  0  0  0
 11 30  2  0  0  0
 12 24  2  0  0  0
 13 31  2  0  0  0
 14 32  2  0  0  0
M  CHG  2  25   1  29  -1
M  END
> <rmsd>
0.40275687

$$$$
ZINC03922077


 35 39  0  0  0  0  0  0  0  0999 V2000
    7.6660    0.5990    1.6737 C   0  0  0  0  0
    7.9694    0.2430    2.9887 C   0  0  0  0  0
    6.6084   -0.0293    1.0106 C   0  0  0  0  0
   -4.4868   -1.1677    0.4475 C   0  0  0  0  0
    7.2080   -0.7395    3.5888 C   0  0  0  0  0
   -3.4002   -0.4797   -0.0504 C   0  0  0  0  0
    6.1675   -1.3297    2.8871 C   0  0  0  0  0
   -2.9974   -2.4346   -0.9594 C   0  0  0  0  0
    3.0784   -0.1614   -0.2848 C   0  0  0  0  0
    3.6272   -0.6223    0.8645 C   0  0  0  0  0
    1.1607    1.2792   -1.1138 C   0  0  0  0  0
   -3.1239    0.9528    0.2406 C   0  0  0  0  0
    3.5191   -0.7401   -1.6244 C   0  0  0  0  0
   -1.9025    1.5956   -0.3623 C   0  0  0  0  0
    7.2809   -1.2903    4.9745 C   0  0  0  0  0
    5.4251   -2.3320    3.7056 C   0  0  0  0  0
    3.1242   -0.2297    2.2518 C   0  0  0  0  0
    6.4488   -2.5798    4.8272 C   0  0  0  0  0
    0.4977    2.0153    0.0855 C   0  0  0  0  0
    1.7366    1.5614    0.8879 C   0  0  0  0  0
   -4.3896    3.6414    2.0018 C   0  0  0  0  0
    4.7819   -1.5920    0.9269 C   0  0  0  0  0
   -2.5448   -1.2046   -0.8570 N   0  0  0  0  0
   -3.9156    1.6415    1.0063 N   0  0  0  0  0
    5.8844   -0.9725    1.6356 N   0  0  0  0  0
    2.0861    0.7654   -0.2747 N   0  0  0  0  0
   -2.3939   -3.4153   -1.6818 N   0  0  0  0  0
   -0.8107    1.4749    0.4513 N   0  0  0  0  0
    2.8508   -1.7334   -2.0129 O   0  0  0  0  0
    0.9259    1.1344   -2.2906 O   0  0  0  0  0
    4.4910   -0.1454   -2.1592 O   0  0  0  0  0
   -2.0110    2.1254   -1.4566 O   0  0  0  0  0
   -3.4736    2.9633    1.1560 O   0  0  0  0  0
   -4.4472   -2.7884   -0.1120 S   0  0  0  0  0
    1.4298    0.4483    2.2784 S   0  0  0  0  0
  1  2  1  0  0  0
  3 25  1  0  0  0
  4 34  1  0  0  0
  5  7  1  0  0  0
  6 12  1  0  0  0
  6 23  1  0  0  0
  8 27  1  0  0  0
  8 34  1  0  0  0
  9 13  1  0  0  0
  9 26  1  0  0  0
 11 26  1  0  0  0
 12 14  1  0  0  0
 13 29  1  0  0  0
 14 28  1  0  0  0
 15  5  1  0  0  0
 15 18  1  0  0  0
 16  7  1  0  0  0
 16 18  1  0  0  0
 17 10  1  0  0  0
 17 35  1  0  0  0
 19 11  1  0  0  0
 19 20  1  0  0  0
 19 28  1  0  0  0
 20 26  1  0  0  0
 20 35  1  0  0  0
 21 33  1  0  0  0
 22 10  1  0  0  0
 22 25  1  0  0  0
 24 33  1  0  0  0
  1  3  2  0  0  0
  2  5  2  0  0  0
  4  6  2  0  0  0
  7 25  2  0  0  0
  8 23  2  0  0  0
  9 10  2  0  0  0
 11 30  2  0  0  0
 12 24  2  0  0  0
 13 31  2  0  0  0
 14 32  2  0  0  0
M  CHG  2  25   1  29  -1
M  END
> <rmsd>
0.10306906

$$$$
ZINC26892204


 35 39  0  0  0  0  0  0  0  0999 V2000
    6.8185   -1.7257    3.9938 C   0  0  0  0  0
    7.8659   -1.3770    3.1398 C   0  0  0  0  0
    5.5970   -1.0526    3.9054 C   0  0  0  0  0
   -4.4777   -1.1753    0.4441 C   0  0  0  0  0
    7.6547   -0.3572    2.2340 C   0  0  0  0  0
   -3.4008   -0.4748   -0.0576 C   0  0  0  0  0
    6.4222    0.2768    2.1855 C   0  0  0  0  0
   -2.9935   -2.4177   -0.9900 C   0  0  0  0  0
    3.5598   -0.6283    0.8033 C   0  0  0  0  0
    3.0308   -0.1444   -0.3340 C   0  0  0  0  0
    1.1390    1.3205   -1.1491 C   0  0  0  0  0
   -3.1316    0.9567    0.2447 C   0  0  0  0  0
    3.5297   -0.7566   -1.6253 C   0  0  0  0  0
   -1.9209    1.6141   -0.3638 C   0  0  0  0  0
    8.5677    0.1970    1.1909 C   0  0  0  0  0
    6.3587    1.3168    1.1177 C   0  0  0  0  0
    7.8593    1.5229    0.8482 C   0  0  0  0  0
    3.1124   -0.2809    2.2110 C   0  0  0  0  0
    0.4808    2.0462    0.0644 C   0  0  0  0  0
    1.7314    1.5902    0.8517 C   0  0  0  0  0
   -4.3984    3.6188    2.0451 C   0  0  0  0  0
    4.1399    0.5947    2.9214 C   0  0  0  0  0
   -2.5484   -1.1856   -0.8799 N   0  0  0  0  0
   -3.9205    1.6322    1.0250 N   0  0  0  0  0
    5.4293   -0.0735    3.0012 N   0  0  0  0  0
    2.0534    0.7884   -0.3138 N   0  0  0  0  0
   -2.3905   -3.3870   -1.7281 N   0  0  0  0  0
   -0.8204    1.4929    0.4379 N   0  0  0  0  0
    3.3331   -1.9991   -1.7403 O   0  0  0  0  0
    0.9055    1.1922   -2.3278 O   0  0  0  0  0
    4.0794    0.0523   -2.4246 O   0  0  0  0  0
   -2.0438    2.1539   -1.4515 O   0  0  0  0  0
   -3.4862    2.9556    1.1835 O   0  0  0  0  0
   -4.4323   -2.7901   -0.1319 S   0  0  0  0  0
    1.4439    0.4990    2.2680 S   0  0  0  0  0
  1  2  1  0  0  0
  3 25  1  0  0  0
  4 34  1  0  0  0
  5  7  1  0  0  0
  6 12  1  0  0  0
  6 23  1  0  0  0
  8 27  1  0  0  0
  8 34  1  0  0  0
 10 13  1  0  0  0
 10 26  1  0  0  0
 11 26  1  0  0  0
 12 14  1  0  0  0
 13 29  1  0  0  0
 14 28  1  0  0  0
 15  5  1  0  0  0
 15 17  1  0  0  0
 16  7  1  0  0  0
 16 17  1  0  0  0
 18  9  1  0  0  0
 18 22  1  0  0  0
 18 35  1  0  0  0
 19 11  1  0  0  0
 19 20  1  0  0  0
 19 28  1  0  0  0
 20 26  1  0  0  0
 20 35  1  0  0  0
 21 33  1  0  0  0
 22 25  1  0  0  0
 24 33  1  0  0  0
  1  3  2  0  0  0
  2  5  2  0  0  0
  4  6  2  0  0  0
  7 25  2  0  0  0
  8 23  2  0  0  0
  9 10  2  0  0  0
 11 30  2  0  0  0
 12 24  2  0  0  0
 13 31  2  0  0  0
 14 32  2  0  0  0
M  CHG  2  25   1  29  -1
M  END
> <rmsd>
0.116840862

$$$$
ZINC26892204


 35 39  0  0  0  0  0  0  0  0999 V2000
    7.0896   -0.9655    3.7574 C   0  0  0  0  0
    8.0880   -0.4628    2.9217 C   0  0  0  0  0
    5.8081   -0.4095    3.7208 C   0  0  0  0  0
   -4.2504   -1.2824    0.3206 C   0  0  0  0  0
    7.7684    0.5881    2.0859 C   0  0  0  0  0
   -3.2521   -0.4500   -0.1407 C   0  0  0  0  0
    6.4802    1.1018    2.0865 C   0  0  0  0  0
   -2.6716   -2.2801   -1.2008 C   0  0  0  0  0
    3.7011    0.0152    0.6657 C   0  0  0  0  0
    3.1140    0.5181   -0.4342 C   0  0  0  0  0
    1.0801    1.8426   -1.1401 C   0  0  0  0  0
   -3.1181    0.9783    0.2530 C   0  0  0  0  0
    3.6533    0.0416   -1.7659 C   0  0  0  0  0
   -1.9838    1.7876   -0.3185 C   0  0  0  0  0
    8.6109    1.2942    1.0757 C   0  0  0  0  0
    6.3038    2.1975    1.0895 C   0  0  0  0  0
    7.7742    2.5648    0.8250 C   0  0  0  0  0
    3.2399    0.2261    2.0957 C   0  0  0  0  0
    0.3704    2.4214    0.1223 C   0  0  0  0  0
    1.6687    2.0387    0.8704 C   0  0  0  0  0
   -4.6124    3.3835    2.2315 C   0  0  0  0  0
    4.1872    1.1493    2.8556 C   0  0  0  0  0
   -2.3457   -1.0205   -1.0130 N   0  0  0  0  0
   -3.9585    1.5225    1.0807 N   0  0  0  0  0
    5.5358    0.6051    2.8836 N   0  0  0  0  0
    2.0518    1.3487   -0.3471 N   0  0  0  0  0
   -1.9874   -3.1369   -2.0044 N   0  0  0  0  0
   -0.8669    1.7219    0.4667 N   0  0  0  0  0
    3.5757   -1.2040   -1.9608 O   0  0  0  0  0
    0.8454    1.7687   -2.3232 O   0  0  0  0  0
    4.1128    0.9498   -2.5140 O   0  0  0  0  0
   -2.1715    2.3821   -1.3678 O   0  0  0  0  0
   -3.6514    2.8687    1.3228 O   0  0  0  0  0
   -4.0572   -2.8446   -0.3601 S   0  0  0  0  0
    1.5050    0.8356    2.2139 S   0  0  0  0  0
  1  2  1  0  0  0
  3 25  1  0  0  0
  4 34  1  0  0  0
  5  7  1  0  0  0
  6 12  1  0  0  0
  6 23  1  0  0  0
  8 27  1  0  0  0
  8 34  1  0  0  0
 10 13  1  0  0  0
 10 26  1  0  0  0
 11 26  1  0  0  0
 12 14  1  0  0  0
 13 29  1  0  0  0
 14 28  1  0  0  0
 15  5  1  0  0  0
 15 17  1  0  0  0
 16  7  1  0  0  0
 16 17  1  0  0  0
 18  9  1  0  0  0
 18 22  1  0  0  0
 18 35  1  0  0  0
 19 11  1  0  0  0
 19 20  1  0  0  0
 19 28  1  0  0  0
 20 26  1  0  0  0
 20 35  1  0  0  0
 21 33  1  0  0  0
 22 25  1  0  0  0
 24 33  1  0  0  0
  1  3  2  0  0  0
  2  5  2  0  0  0
  4  6  2  0  0  0
  7 25  2  0  0  0
  8 23  2  0  0  0
  9 10  2  0  0  0
 11 30  2  0  0  0
 12 24  2  0  0  0
 13 31  2  0  0  0
 14 32  2  0  0  0
M  CHG  2  25   1  29  -1
M  END
> <rmsd>
0.366885543

$$$$
ZINC03922077


 35 39  0  0  0  0  0  0  0  0999 V2000
    7.6743    0.6039    1.6970 C   0  0  0  0  0
    7.9738    0.2395    3.0106 C   0  0  0  0  0
    6.6202   -0.0218    1.0259 C   0  0  0  0  0
   -2.5778   -1.2645   -0.8733 C   0  0  0  0  0
    7.2120   -0.7483    3.6014 C   0  0  0  0  0
   -3.3839   -0.4823   -0.0729 C   0  0  0  0  0
    6.1751   -1.3356    2.8921 C   0  0  0  0  0
   -4.5210   -2.3540    0.0429 C   0  0  0  0  0
    3.0949   -0.1512   -0.2826 C   0  0  0  0  0
    3.6405   -0.6190    0.8655 C   0  0  0  0  0
    1.1775    1.2916   -1.1085 C   0  0  0  0  0
   -3.1112    0.9487    0.2288 C   0  0  0  0  0
    3.5413   -0.7200   -1.6245 C   0  0  0  0  0
   -1.8888    1.5977   -0.3656 C   0  0  0  0  0
    7.2811   -1.3084    4.9836 C   0  0  0  0  0
    5.4316   -2.3447    3.7012 C   0  0  0  0  0
    3.1320   -0.2366    2.2536 C   0  0  0  0  0
    6.4518   -2.5983    4.8247 C   0  0  0  0  0
    0.5091    2.0185    0.0934 C   0  0  0  0  0
    1.7460    1.5613    0.8971 C   0  0  0  0  0
   -4.3877    3.6231    2.0037 C   0  0  0  0  0
    4.7967   -1.5870    0.9254 C   0  0  0  0  0
   -4.4988   -1.1053    0.4530 N   0  0  0  0  0
   -3.9067    1.6308    0.9963 N   0  0  0  0  0
    5.8957   -0.9704    1.6420 N   0  0  0  0  0
    2.1009    0.7738   -0.2697 N   0  0  0  0  0
   -5.4857   -3.2525    0.3750 N   0  0  0  0  0
   -0.7996    1.4734    0.4510 N   0  0  0  0  0
    2.8761   -1.7119   -2.0220 O   0  0  0  0  0
    0.9471    1.1544   -2.2871 O   0  0  0  0  0
    4.5140   -0.1201   -2.1519 O   0  0  0  0  0
   -1.9944    2.1347   -1.4566 O   0  0  0  0  0
   -3.4676    2.9523    1.1565 O   0  0  0  0  0
   -3.2318   -2.8465   -0.9772 S   0  0  0  0  0
    1.4363    0.4383    2.2789 S   0  0  0  0  0
  1  2  1  0  0  0
  3 25  1  0  0  0
  4 34  1  0  0  0
  5  7  1  0  0  0
  6 12  1  0  0  0
  6 23  1  0  0  0
  8 27  1  0  0  0
  8 34  1  0  0  0
  9 13  1  0  0  0
  9 26  1  0  0  0
 11 26  1  0  0  0
 12 14  1  0  0  0
 13 29  1  0  0  0
 14 28  1  0  0  0
 15  5  1  0  0  0
 15 18  1  0  0  0
 16  7  1  0  0  0
 16 18  1  0  0  0
 17 10  1  0  0  0
 17 35  1  0  0  0
 19 11  1  0  0  0
 19 20  1  0  0  0
 19 28  1  0  0  0
 20 26  1  0  0  0
 20 35  1  0  0  0
 21 33  1  0  0  0
 22 10  1  0  0  0
 22 25  1  0  0  0
 24 33  1  0  0  0
  1  3  2  0  0  0
  2  5  2  0  0  0
  4  6  2  0  0  0
  7 25  2  0  0  0
  8 23  2  0  0  0
  9 10  2  0  0  0
 11 30  2  0  0  0
 12 24  2  0  0  0
 13 31  2  0  0  0
 14 32  2  0  0  0
M  CHG  2  25   1  29  -1
M  END
> <rmsd>
0.0605993308

$$$$
ZINC03922077


 35 39  0  0  0  0  0  0  0  0999 V2000
    7.6894    1.5180    2.0672 C   0  0  0  0  0
    7.9758    1.1274    3.3762 C   0  0  0  0  0
    6.7203    0.8287    1.3331 C   0  0  0  0  0
   -2.2554   -1.1550   -0.9594 C   0  0  0  0  0
    7.2876    0.0514    3.8992 C   0  0  0  0  0
   -3.1564   -0.4826   -0.1605 C   0  0  0  0  0
    6.3335   -0.5966    3.1290 C   0  0  0  0  0
   -4.1212   -2.4521   -0.1601 C   0  0  0  0  0
    3.2684    0.4378   -0.1119 C   0  0  0  0  0
    3.8149   -0.0266    1.0371 C   0  0  0  0  0
    1.2567    1.7358   -0.9536 C   0  0  0  0  0
   -3.0260    0.9532    0.2061 C   0  0  0  0  0
    3.8105   -0.0320   -1.4569 C   0  0  0  0  0
   -1.8484    1.7337   -0.3161 C   0  0  0  0  0
    7.3603   -0.5576    5.2604 C   0  0  0  0  0
    5.6580   -1.7014    3.8700 C   0  0  0  0  0
    3.2264    0.2502    2.4187 C   0  0  0  0  0
    6.6581   -1.9090    5.0207 C   0  0  0  0  0
    0.4840    2.3487    0.2492 C   0  0  0  0  0
    1.7292    1.9714    1.0809 C   0  0  0  0  0
   -4.6014    3.4255    2.0332 C   0  0  0  0  0
    5.0519   -0.8885    1.1034 C   0  0  0  0  0
   -4.2271   -1.2247    0.2984 N   0  0  0  0  0
   -3.9063    1.5284    0.9687 N   0  0  0  0  0
    6.0648   -0.2061    1.8843 N   0  0  0  0  0
    2.1943    1.2684   -0.1010 N   0  0  0  0  0
   -5.0106   -3.4467    0.1005 N   0  0  0  0  0
   -0.7810    1.6738    0.5357 N   0  0  0  0  0
    3.2527   -1.0621   -1.9172 O   0  0  0  0  0
    1.0802    1.6278   -2.1445 O   0  0  0  0  0
    4.7418    0.6745   -1.9236 O   0  0  0  0  0
   -1.9652    2.3042   -1.3888 O   0  0  0  0  0
   -3.5954    2.8762    1.1963 O   0  0  0  0  0
   -2.7582   -2.7837   -1.1488 S   0  0  0  0  0
    1.4763    0.7684    2.4058 S   0  0  0  0  0
  1  2  1  0  0  0
  3 25  1  0  0  0
  4 34  1  0  0  0
  5  7  1  0  0  0
  6 12  1  0  0  0
  6 23  1  0  0  0
  8 27  1  0  0  0
  8 34  1  0  0  0
  9 13  1  0  0  0
  9 26  1  0  0  0
 11 26  1  0  0  0
 12 14  1  0  0  0
 13 29  1  0  0  0
 14 28  1  0  0  0
 15  5  1  0  0  0
 15 18  1  0  0  0
 16  7  1  0  0  0
 16 18  1  0  0  0
 17 10  1  0  0  0
 17 35  1  0  0  0
 19 11  1  0  0  0
 19 20  1  0  0  0
 19 28  1  0  0  0
 20 26  1  0  0  0
 20 35  1  0  0  0
 21 33  1  0  0  0
 22 10  1  0  0  0
 22 25  1  0  0  0
 24 33  1  0  0  0
  1  3  2  0  0  0
  2  5  2  0  0  0
  4  6  2  0  0  0
  7 25  2  0  0  0
  8 23  2  0  0  0
  9 10  2  0  0  0
 11 30  2  0  0  0
 12 24  2  0  0  0
 13 31  2  0  0  0
 14 32  2  0  0  0
M  CHG  2  25   1  29  -1
M  END
> <rmsd>
0.359790295

$$$$
ZINC26892199


 35 39  0  0  0  0  0  0  0  0999 V2000
    2.0475   -0.8000    6.5943 C   0  0  0  0  0
    3.2240   -0.3488    7.1945 C   0  0  0  0  0
    2.0496   -1.1559    5.2429 C   0  0  0  0  0
   -4.4803   -1.1738    0.4459 C   0  0  0  0  0
    4.3593   -0.2598    6.4147 C   0  0  0  0  0
   -3.4030   -0.4742   -0.0563 C   0  0  0  0  0
    4.3082   -0.6282    5.0786 C   0  0  0  0  0
   -2.9974   -2.4178   -0.9879 C   0  0  0  0  0
    3.5793   -0.6093    0.8022 C   0  0  0  0  0
    3.0371   -0.1399   -0.3354 C   0  0  0  0  0
    1.1381    1.3178   -1.1496 C   0  0  0  0  0
   -3.1328    0.9572    0.2455 C   0  0  0  0  0
    3.5346   -0.7543   -1.6267 C   0  0  0  0  0
   -1.9216    1.6134   -0.3635 C   0  0  0  0  0
    5.7450    0.1505    6.7897 C   0  0  0  0  0
    5.6345   -0.5140    4.4053 C   0  0  0  0  0
    6.3681    0.4003    5.4017 C   0  0  0  0  0
    3.1415   -0.2382    2.2097 C   0  0  0  0  0
    0.4805    2.0439    0.0641 C   0  0  0  0  0
    1.7304    1.5874    0.8517 C   0  0  0  0  0
   -4.3972    3.6209    2.0449 C   0  0  0  0  0
    3.1535   -1.4618    3.1239 C   0  0  0  0  0
   -2.5514   -1.1860   -0.8784 N   0  0  0  0  0
   -3.9209    1.6336    1.0257 N   0  0  0  0  0
    3.1797   -1.0657    4.5226 N   0  0  0  0  0
    2.0549    0.7883   -0.3156 N   0  0  0  0  0
   -2.3951   -3.3879   -1.7257 N   0  0  0  0  0
   -0.8208    1.4919    0.4378 N   0  0  0  0  0
    3.3524   -1.9997   -1.7323 O   0  0  0  0  0
    0.9030    1.1884   -2.3278 O   0  0  0  0  0
    4.0687    0.0563   -2.4347 O   0  0  0  0  0
   -2.0443    2.1528   -1.4514 O   0  0  0  0  0
   -3.4856    2.9567    1.1835 O   0  0  0  0  0
   -4.4362   -2.7888   -0.1294 S   0  0  0  0  0
    1.4453    0.4850    2.2593 S   0  0  0  0  0
  1  2  1  0  0  0
  3 25  1  0  0  0
  4 34  1  0  0  0
  5  7  1  0  0  0
  6 12  1  0  0  0
  6 23  1  0  0  0
  8 27  1  0  0  0
  8 34  1  0  0  0
 10 13  1  0  0  0
 10 26  1  0  0  0
 11 26  1  0  0  0
 12 14  1  0  0  0
 13 29  1  0  0  0
 14 28  1  0  0  0
 15  5  1  0  0  0
 15 17  1  0  0  0
 16  7  1  0  0  0
 16 17  1  0  0  0
 18  9  1  0  0  0
 18 22  1  0  0  0
 18 35  1  0  0  0
 19 11  1  0  0  0
 19 20  1  0  0  0
 19 28  1  0  0  0
 20 26  1  0  0  0
 20 35  1  0  0  0
 21 33  1  0  0  0
 22 25  1  0  0  0
 24 33  1  0  0  0
  1  3  2  0  0  0
  2  5  2  0  0  0
  4  6  2  0  0  0
  7 25  2  0  0  0
  8 23  2  0  0  0
  9 10  2  0  0  0
 11 30  2  0  0  0
 12 24  2  0  0  0
 13 31  2  0  0  0
 14 32  2  0  0  0
M  CHG  2  25   1  29  -1
M  END
> <rmsd>
0.114984848

$$$$
ZINC26892199


 35 39  0  0  0  0  0  0  0  0999 V2000
    2.2897   -0.6789    6.4354 C   0  0  0  0  0
    3.4257   -0.1563    7.0554 C   0  0  0  0  0
    2.3075   -0.9443    5.0635 C   0  0  0  0  0
   -4.2556   -1.2804    0.3238 C   0  0  0  0  0
    4.5364    0.0924    6.2749 C   0  0  0  0  0
   -3.2572   -0.4489   -0.1390 C   0  0  0  0  0
    4.5026   -0.1916    4.9179 C   0  0  0  0  0
   -2.6800   -2.2795   -1.1999 C   0  0  0  0  0
    3.7169    0.0351    0.6575 C   0  0  0  0  0
    3.1168    0.5230   -0.4427 C   0  0  0  0  0
    1.0758    1.8404   -1.1448 C   0  0  0  0  0
   -3.1214    0.9792    0.2547 C   0  0  0  0  0
    3.6531    0.0447   -1.7753 C   0  0  0  0  0
   -1.9871    1.7875   -0.3185 C   0  0  0  0  0
    5.8814    0.6093    6.6660 C   0  0  0  0  0
    5.8025    0.0938    4.2438 C   0  0  0  0  0
    6.4587    1.0079    5.2931 C   0  0  0  0  0
    3.2648    0.2699    2.0896 C   0  0  0  0  0
    0.3683    2.4191    0.1190 C   0  0  0  0  0
    1.6668    2.0351    0.8655 C   0  0  0  0  0
   -4.6106    3.3857    2.2354 C   0  0  0  0  0
    3.4066   -1.0037    2.9208 C   0  0  0  0  0
   -2.3526   -1.0202   -1.0125 N   0  0  0  0  0
   -3.9600    1.5242    1.0836 N   0  0  0  0  0
    3.4137   -0.6988    4.3424 N   0  0  0  0  0
    2.0505    1.3487   -0.3544 N   0  0  0  0  0
   -1.9976   -3.1369   -2.0046 N   0  0  0  0  0
   -0.8689    1.7209    0.4650 N   0  0  0  0  0
    3.5897   -1.2029   -1.9616 O   0  0  0  0  0
    0.8381    1.7658   -2.3272 O   0  0  0  0  0
    4.0960    0.9539   -2.5319 O   0  0  0  0  0
   -2.1758    2.3822   -1.3674 O   0  0  0  0  0
   -3.6514    2.8700    1.3253 O   0  0  0  0  0
   -4.0648   -2.8428   -0.3573 S   0  0  0  0  0
    1.5080    0.8212    2.1993 S   0  0  0  0  0
  1  2  1  0  0  0
  3 25  1  0  0  0
  4 34  1  0  0  0
  5  7  1  0  0  0
  6 12  1  0  0  0
  6 23  1  0  0  0
  8 27  1  0  0  0
  8 34  1  0  0  0
 10 13  1  0  0  0
 10 26  1  0  0  0
 11 26  1  0  0  0
 12 14  1  0  0  0
 13 29  1  0  0  0
 14 28  1  0  0  0
 15  5  1  0  0  0
 15 17  1  0  0  0
 16  7  1  0  0  0
 16 17  1  0  0  0
 18  9  1  0  0  0
 18 22  1  0  0  0
 18 35  1  0  0  0
 19 11  1  0  0  0
 19 20  1  0  0  0
 19 28  1  0  0  0
 20 26  1  0  0  0
 20 35  1  0  0  0
 21 33  1  0  0  0
 22 25  1  0  0  0
 24 33  1  0  0  0
  1  3  2  0  0  0
  2  5  2  0  0  0
  4  6  2  0  0  0
  7 25  2  0  0  0
  8 23  2  0  0  0
  9 10  2  0  0  0
 11 30  2  0  0  0
 12 24  2  0  0  0
 13 31  2  0  0  0
 14 32  2  0  0  0
M  CHG  2  25   1  29  -1
M  END
> <rmsd>
0.363433331

$$$$
ZINC26892204


 35 39  0  0  0  0  0  0  0  0999 V2000
    7.0896   -0.9856    3.7709 C   0  0  0  0  0
    8.0909   -0.4754    2.9432 C   0  0  0  0  0
    5.8078   -0.4302    3.7337 C   0  0  0  0  0
   -2.3729   -1.0792   -1.0333 C   0  0  0  0  0
    7.7739    0.5820    2.1147 C   0  0  0  0  0
   -3.2370   -0.4467   -0.1640 C   0  0  0  0  0
    6.4852    1.0947    2.1143 C   0  0  0  0  0
   -4.1736   -2.4297   -0.1751 C   0  0  0  0  0
    3.7127    0.0174    0.6737 C   0  0  0  0  0
    3.1295    0.5286   -0.4245 C   0  0  0  0  0
    1.0974    1.8573   -1.1277 C   0  0  0  0  0
   -3.1056    0.9785    0.2417 C   0  0  0  0  0
    3.6745    0.0633   -1.7577 C   0  0  0  0  0
   -1.9697    1.7932   -0.3188 C   0  0  0  0  0
    8.6198    1.2969    1.1136 C   0  0  0  0  0
    6.3119    2.1982    1.1255 C   0  0  0  0  0
    7.7830    2.5688    0.8697 C   0  0  0  0  0
    3.2456    0.2164    2.1036 C   0  0  0  0  0
    0.3822    2.4253    0.1364 C   0  0  0  0  0
    1.6778    2.0376    0.8866 C   0  0  0  0  0
   -4.6097    3.3666    2.2335 C   0  0  0  0  0
    4.1891    1.1342    2.8746 C   0  0  0  0  0
   -4.2703   -1.2193    0.3287 N   0  0  0  0  0
   -3.9497    1.5154    1.0704 N   0  0  0  0  0
    5.5381    0.5908    2.9036 N   0  0  0  0  0
    2.0663    1.3577   -0.3349 N   0  0  0  0  0
   -5.0336   -3.4456    0.1014 N   0  0  0  0  0
   -0.8559    1.7221    0.4703 N   0  0  0  0  0
    3.5986   -1.1808   -1.9630 O   0  0  0  0  0
    0.8675    1.7927   -2.3123 O   0  0  0  0  0
    4.1362    0.9779   -2.4966 O   0  0  0  0  0
   -2.1537    2.3960   -1.3640 O   0  0  0  0  0
   -3.6447    2.8598    1.3246 O   0  0  0  0  0
   -2.8636   -2.7086   -1.2480 S   0  0  0  0  0
    1.5098    0.8236    2.2198 S   0  0  0  0  0
  1  2  1  0  0  0
  3 25  1  0  0  0
  4 34  1  0  0  0
  5  7  1  0  0  0
  6 12  1  0  0  0
  6 23  1  0  0  0
  8 27  1  0  0  0
  8 34  1  0  0  0
 10 13  1  0  0  0
 10 26  1  0  0  0
 11 26  1  0  0  0
 12 14  1  0  0  0
 13 29  1  0  0  0
 14 28  1  0  0  0
 15  5  1  0  0  0
 15 17  1  0  0  0
 16  7  1  0  0  0
 16 17  1  0  0  0
 18  9  1  0  0  0
 18 22  1  0  0  0
 18 35  1  0  0  0
 19 11  1  0  0  0
 19 20  1  0  0  0
 19 28  1  0  0  0
 20 26  1  0  0  0
 20 35  1  0  0  0
 21 33  1  0  0  0
 22 25  1  0  0  0
 24 33  1  0  0  0
  1  3  2  0  0  0
  2  5  2  0  0  0
  4  6  2  0  0  0
  7 25  2  0  0  0
  8 23  2  0  0  0
  9 10  2  0  0  0
 11 30  2  0  0  0
 12 24  2  0  0  0
 13 31  2  0  0  0
 14 32  2  0  0  0
M  CHG  2  25   1  29  -1
M  END
> <rmsd>
0.327241361

$$$$
ZINC26892204


 35 39  0  0  0  0  0  0  0  0999 V2000
    6.8217   -1.7396    3.9992 C   0  0  0  0  0
    7.8717   -1.3832    3.1514 C   0  0  0  0  0
    5.5995   -1.0678    3.9112 C   0  0  0  0  0
   -2.5814   -1.2438   -0.8963 C   0  0  0  0  0
    7.6621   -0.3573    2.2522 C   0  0  0  0  0
   -3.3849   -0.4756   -0.0800 C   0  0  0  0  0
    6.4287    0.2752    2.2038 C   0  0  0  0  0
   -4.5080   -2.3563    0.0275 C   0  0  0  0  0
    3.5727   -0.6244    0.8049 C   0  0  0  0  0
    3.0471   -0.1333   -0.3308 C   0  0  0  0  0
    1.1559    1.3344   -1.1422 C   0  0  0  0  0
   -3.1191    0.9542    0.2336 C   0  0  0  0  0
    3.5516   -0.7355   -1.6247 C   0  0  0  0  0
   -1.9072    1.6177   -0.3659 C   0  0  0  0  0
    8.5779    0.2058    1.2164 C   0  0  0  0  0
    6.3674    1.3227    1.1432 C   0  0  0  0  0
    7.8687    1.5331    0.8807 C   0  0  0  0  0
    3.1197   -0.2878    2.2134 C   0  0  0  0  0
    0.4923    2.0504    0.0740 C   0  0  0  0  0
    1.7407    1.5908    0.8625 C   0  0  0  0  0
   -4.3965    3.6013    2.0483 C   0  0  0  0  0
    4.1433    0.5843    2.9337 C   0  0  0  0  0
   -4.4903   -1.1116    0.4502 N   0  0  0  0  0
   -3.9118    1.6228    1.0158 N   0  0  0  0  0
    5.4335   -0.0825    3.0134 N   0  0  0  0  0
    2.0682    0.7978   -0.3075 N   0  0  0  0  0
   -5.4632   -3.2647    0.3597 N   0  0  0  0  0
   -0.8094    1.4925    0.4388 N   0  0  0  0  0
    3.3574   -1.9774   -1.7493 O   0  0  0  0  0
    0.9268    1.2142   -2.3227 O   0  0  0  0  0
    4.1029    0.0799   -2.4162 O   0  0  0  0  0
   -2.0270    2.1651   -1.4502 O   0  0  0  0  0
   -3.4802    2.9457    1.1853 O   0  0  0  0  0
   -3.2255   -2.8293   -1.0100 S   0  0  0  0  0
    1.4499    0.4891    2.2699 S   0  0  0  0  0
  1  2  1  0  0  0
  3 25  1  0  0  0
  4 34  1  0  0  0
  5  7  1  0  0  0
  6 12  1  0  0  0
  6 23  1  0  0  0
  8 27  1  0  0  0
  8 34  1  0  0  0
 10 13  1  0  0  0
 10 26  1  0  0  0
 11 26  1  0  0  0
 12 14  1  0  0  0
 13 29  1  0  0  0
 14 28  1  0  0  0
 15  5  1  0  0  0
 15 17  1  0  0  0
 16  7  1  0  0  0
 16 17  1  0  0  0
 18  9  1  0  0  0
 18 22  1  0  0  0
 18 35  1  0  0  0
 19 11  1  0  0  0
 19 20  1  0  0  0
 19 28  1  0  0  0
 20 26  1  0  0  0
 20 35  1  0  0  0
 21 33  1  0  0  0
 22 25  1  0  0  0
 24 33  1  0  0  0
  1  3  2  0  0  0
  2  5  2  0  0  0
  4  6  2  0  0  0
  7 25  2  0  0  0
  8 23  2  0  0  0
  9 10  2  0  0  0
 11 30  2  0  0  0
 12 24  2  0  0  0
 13 31  2  0  0  0
 14 32  2  0  0  0
M  CHG  2  25   1  29  -1
M  END
> <rmsd>
0.0781294852

$$$$
ZINC21983161


 35 39  0  0  0  0  0  0  0  0999 V2000
    5.5551   -2.4402    2.5136 C   0  0  0  0  0
    6.5560   -2.1961    3.4549 C   0  0  0  0  0
    5.3316   -1.5224    1.4836 C   0  0  0  0  0
   -4.4563   -1.1948    0.4297 C   0  0  0  0  0
    7.2908   -1.0337    3.3367 C   0  0  0  0  0
   -3.4031   -0.4578   -0.0699 C   0  0  0  0  0
    7.0304   -0.1571    2.2938 C   0  0  0  0  0
   -2.9629   -2.3689   -1.0515 C   0  0  0  0  0
    3.4839    0.8355   -0.5825 C   0  0  0  0  0
    4.4111    1.0112    0.3884 C   0  0  0  0  0
    1.0998    1.4662   -1.1625 C   0  0  0  0  0
   -3.1636    0.9727    0.2617 C   0  0  0  0  0
    3.8852    0.2344   -1.9242 C   0  0  0  0  0
   -1.9769    1.6722   -0.3473 C   0  0  0  0  0
    8.4283   -0.5351    4.1652 C   0  0  0  0  0
    7.9499    1.0177    2.2946 C   0  0  0  0  0
    4.1252    1.7354    1.7040 C   0  0  0  0  0
    8.4845    0.9445    3.7354 C   0  0  0  0  0
    0.4196    2.1514    0.0595 C   0  0  0  0  0
    1.6254    1.6199    0.8655 C   0  0  0  0  0
   -4.4681    3.5625    2.1386 C   0  0  0  0  0
    5.8338    0.5142    0.3069 C   0  0  0  0  0
   -2.5455   -1.1294   -0.9191 N   0  0  0  0  0
   -3.9574    1.6114    1.0674 N   0  0  0  0  0
    6.0776   -0.4087    1.3979 N   0  0  0  0  0
    2.2054    1.2628   -0.4153 N   0  0  0  0  0
   -2.3472   -3.3066   -1.8194 N   0  0  0  0  0
   -0.8616    1.5599    0.4364 N   0  0  0  0  0
    3.8007   -1.0202   -1.9845 O   0  0  0  0  0
    0.8191    1.2568   -2.3191 O   0  0  0  0  0
    4.2465    1.0742   -2.7895 O   0  0  0  0  0
   -2.1271    2.2332   -1.4207 O   0  0  0  0  0
   -3.5523    2.9407    1.2505 O   0  0  0  0  0
   -4.3808   -2.7946   -0.1837 S   0  0  0  0  0
    2.6831    2.8538    1.6510 S   0  0  0  0  0
  1  2  1  0  0  0
  3 25  1  0  0  0
  4 34  1  0  0  0
  5  7  1  0  0  0
  6 12  1  0  0  0
  6 23  1  0  0  0
  8 27  1  0  0  0
  8 34  1  0  0  0
  9 13  1  0  0  0
  9 26  1  0  0  0
 11 26  1  0  0  0
 12 14  1  0  0  0
 13 29  1  0  0  0
 14 28  1  0  0  0
 15  5  1  0  0  0
 15 18  1  0  0  0
 16  7  1  0  0  0
 16 18  1  0  0  0
 17 10  1  0  0  0
 17 35  1  0  0  0
 19 11  1  0  0  0
 19 20  1  0  0  0
 19 28  1  0  0  0
 20 26  1  0  0  0
 20 35  1  0  0  0
 21 33  1  0  0  0
 22 10  1  0  0  0
 22 25  1  0  0  0
 24 33  1  0  0  0
  1  3  2  0  0  0
  2  5  2  0  0  0
  4  6  2  0  0  0
  7 25  2  0  0  0
  8 23  2  0  0  0
  9 10  2  0  0  0
 11 30  2  0  0  0
 12 24  2  0  0  0
 13 31  2  0  0  0
 14 32  2  0  0  0
M  CHG  2  25   1  29  -1
M  END
> <rmsd>
0.193732604

$$$$
ZINC21983161


 35 39  0  0  0  0  0  0  0  0999 V2000
    5.1545   -3.0518    2.9590 C   0  0  0  0  0
    6.1566   -2.8287    3.9043 C   0  0  0  0  0
    5.0338   -2.1969    1.8600 C   0  0  0  0  0
   -4.6634   -1.0742    0.5464 C   0  0  0  0  0
    6.9962   -1.7488    3.7200 C   0  0  0  0  0
   -3.5387   -0.4736    0.0205 C   0  0  0  0  0
    6.8352   -0.9325    2.6102 C   0  0  0  0  0
   -3.2570   -2.4842   -0.8088 C   0  0  0  0  0
    3.4454    0.1564   -0.4163 C   0  0  0  0  0
    4.3674    0.3203    0.5616 C   0  0  0  0  0
    1.1393    0.9530   -1.0986 C   0  0  0  0  0
   -3.1759    0.9503    0.2532 C   0  0  0  0  0
    3.8141   -0.5764   -1.7006 C   0  0  0  0  0
   -1.9199    1.4935   -0.3758 C   0  0  0  0  0
    8.1594   -1.2936    4.5377 C   0  0  0  0  0
    7.8577    0.1521    2.5482 C   0  0  0  0  0
    4.1253    1.1631    1.8139 C   0  0  0  0  0
    8.3577    0.1389    4.0031 C   0  0  0  0  0
    0.5027    1.7854    0.0535 C   0  0  0  0  0
    1.6406    1.2097    0.9252 C   0  0  0  0  0
   -4.2724    3.7790    1.9048 C   0  0  0  0  0
    5.7402   -0.3067    0.5512 C   0  0  0  0  0
   -2.7309   -1.2807   -0.7565 N   0  0  0  0  0
   -3.9225    1.7157    0.9908 N   0  0  0  0  0
    5.8795   -1.1639    1.7119 N   0  0  0  0  0
    2.2084    0.7077   -0.3118 N   0  0  0  0  0
   -2.7157   -3.5279   -1.4913 N   0  0  0  0  0
   -0.8336    1.3406    0.4410 N   0  0  0  0  0
    3.6168   -1.8194   -1.6718 O   0  0  0  0  0
    0.8612    0.6839   -2.2434 O   0  0  0  0  0
    4.2656    0.1609   -2.6155 O   0  0  0  0  0
   -1.9993    1.9842   -1.4905 O   0  0  0  0  0
   -3.4013    3.0135    1.0867 O   0  0  0  0  0
   -4.7230   -2.7156    0.0528 S   0  0  0  0  0
    2.7921    2.3990    1.6446 S   0  0  0  0  0
  1  2  1  0  0  0
  3 25  1  0  0  0
  4 34  1  0  0  0
  5  7  1  0  0  0
  6 12  1  0  0  0
  6 23  1  0  0  0
  8 27  1  0  0  0
  8 34  1  0  0  0
  9 13  1  0  0  0
  9 26  1  0  0  0
 11 26  1  0  0  0
 12 14  1  0  0  0
 13 29  1  0  0  0
 14 28  1  0  0  0
 15  5  1  0  0  0
 15 18  1  0  0  0
 16  7  1  0  0  0
 16 18  1  0  0  0
 17 10  1  0  0  0
 17 35  1  0  0  0
 19 11  1  0  0  0
 19 20  1  0  0  0
 19 28  1  0  0  0
 20 26  1  0  0  0
 20 35  1  0  0  0
 21 33  1  0  0  0
 22 10  1  0  0  0
 22 25  1  0  0  0
 24 33  1  0  0  0
  1  3  2  0  0  0
  2  5  2  0  0  0
  4  6  2  0  0  0
  7 25  2  0  0  0
  8 23  2  0  0  0
  9 10  2  0  0  0
 11 30  2  0  0  0
 12 24  2  0  0  0
 13 31  2  0  0  0
 14 32  2  0  0  0
M  CHG  2  25   1  29  -1
M  END
> <rmsd>
0.166201174

$$$$
ZINC26892199


 35 39  0  0  0  0  0  0  0  0999 V2000
    2.2792   -0.7258    6.4310 C   0  0  0  0  0
    3.4124   -0.2073    7.0597 C   0  0  0  0  0
    2.3026   -0.9802    5.0571 C   0  0  0  0  0
   -2.3798   -1.0806   -1.0337 C   0  0  0  0  0
    4.5260    0.0485    6.2856 C   0  0  0  0  0
   -3.2419   -0.4472   -0.1632 C   0  0  0  0  0
    4.4978   -0.2246    4.9261 C   0  0  0  0  0
   -4.1805   -2.4294   -0.1729 C   0  0  0  0  0
    3.7286    0.0356    0.6647 C   0  0  0  0  0
    3.1325    0.5319   -0.4339 C   0  0  0  0  0
    1.0933    1.8533   -1.1335 C   0  0  0  0  0
   -3.1087    0.9778    0.2424 C   0  0  0  0  0
    3.6745    0.0647   -1.7682 C   0  0  0  0  0
   -1.9728    1.7915   -0.3197 C   0  0  0  0  0
    5.8690    0.5633    6.6861 C   0  0  0  0  0
    5.8001    0.0671    4.2596 C   0  0  0  0  0
    6.4514    0.9733    5.3187 C   0  0  0  0  0
    3.2707    0.2586    2.0968 C   0  0  0  0  0
    0.3803    2.4214    0.1321 C   0  0  0  0  0
    1.6762    2.0324    0.8806 C   0  0  0  0  0
   -4.6076    3.3672    2.2365 C   0  0  0  0  0
    3.4102   -1.0215    2.9184 C   0  0  0  0  0
   -4.2753   -1.2190    0.3311 N   0  0  0  0  0
   -3.9510    1.5155    1.0724 N   0  0  0  0  0
    3.4115   -0.7281    4.3423 N   0  0  0  0  0
    2.0652    1.3561   -0.3432 N   0  0  0  0  0
   -5.0410   -3.4444    0.1048 N   0  0  0  0  0
   -0.8577    1.7195    0.4676 N   0  0  0  0  0
    3.6127   -1.1814   -1.9648 O   0  0  0  0  0
    0.8603    1.7881   -2.3174 O   0  0  0  0  0
    4.1196    0.9803   -2.5158 O   0  0  0  0  0
   -2.1578    2.3944   -1.3646 O   0  0  0  0  0
   -3.6444    2.8596    1.3261 O   0  0  0  0  0
   -2.8723   -2.7094   -1.2478 S   0  0  0  0  0
    1.5131    0.8077    2.2040 S   0  0  0  0  0
  1  2  1  0  0  0
  3 25  1  0  0  0
  4 34  1  0  0  0
  5  7  1  0  0  0
  6 12  1  0  0  0
  6 23  1  0  0  0
  8 27  1  0  0  0
  8 34  1  0  0  0
 10 13  1  0  0  0
 10 26  1  0  0  0
 11 26  1  0  0  0
 12 14  1  0  0  0
 13 29  1  0  0  0
 14 28  1  0  0  0
 15  5  1  0  0  0
 15 17  1  0  0  0
 16  7  1  0  0  0
 16 17  1  0  0  0
 18  9  1  0  0  0
 18 22  1  0  0  0
 18 35  1  0  0  0
 19 11  1  0  0  0
 19 20  1  0  0  0
 19 28  1  0  0  0
 20 26  1  0  0  0
 20 35  1  0  0  0
 21 33  1  0  0  0
 22 25  1  0  0  0
 24 33  1  0  0  0
  1  3  2  0  0  0
  2  5  2  0  0  0
  4  6  2  0  0  0
  7 25  2  0  0  0
  8 23  2  0  0  0
  9 10  2  0  0  0
 11 30  2  0  0  0
 12 24  2  0  0  0
 13 31  2  0  0  0
 14 32  2  0  0  0
M  CHG  2  25   1  29  -1
M  END
> <rmsd>
0.324350297

$$$$
ZINC26892199


 35 39  0  0  0  0  0  0  0  0999 V2000
    2.0402   -0.8414    6.5882 C   0  0  0  0  0
    3.2139   -0.3926    7.1957 C   0  0  0  0  0
    2.0477   -1.1876    5.2343 C   0  0  0  0  0
   -2.5843   -1.2460   -0.8955 C   0  0  0  0  0
    4.3517   -0.2964    6.4207 C   0  0  0  0  0
   -3.3871   -0.4767   -0.0794 C   0  0  0  0  0
    4.3060   -0.6554    5.0818 C   0  0  0  0  0
   -4.5116   -2.3566    0.0292 C   0  0  0  0  0
    3.5923   -0.6071    0.8031 C   0  0  0  0  0
    3.0535   -0.1305   -0.3331 C   0  0  0  0  0
    1.1550    1.3300   -1.1437 C   0  0  0  0  0
   -3.1202    0.9529    0.2335 C   0  0  0  0  0
    3.5565   -0.7350   -1.6269 C   0  0  0  0  0
   -1.9079    1.6153   -0.3665 C   0  0  0  0  0
    5.7355    0.1135    6.8035 C   0  0  0  0  0
    5.6345   -0.5343    4.4141 C   0  0  0  0  0
    6.3631    0.3741    5.4196 C   0  0  0  0  0
    3.1489   -0.2467    2.2115 C   0  0  0  0  0
    0.4920    2.0465    0.0727 C   0  0  0  0  0
    1.7398    1.5862    0.8615 C   0  0  0  0  0
   -4.3952    3.6018    2.0473 C   0  0  0  0  0
    3.1596   -1.4768    3.1171 C   0  0  0  0  0
   -4.4929   -1.1117    0.4513 N   0  0  0  0  0
   -3.9122    1.6225    1.0156 N   0  0  0  0  0
    3.1801   -1.0907    4.5186 N   0  0  0  0  0
    2.0697    0.7960   -0.3103 N   0  0  0  0  0
   -5.4673   -3.2641    0.3620 N   0  0  0  0  0
   -0.8098    1.4898    0.4379 N   0  0  0  0  0
    3.3766   -1.9799   -1.7420 O   0  0  0  0  0
    0.9243    1.2086   -2.3237 O   0  0  0  0  0
    4.0922    0.0821   -2.4273 O   0  0  0  0  0
   -2.0275    2.1622   -1.4510 O   0  0  0  0  0
   -3.4795    2.9451    1.1844 O   0  0  0  0  0
   -3.2296   -2.8310   -1.0084 S   0  0  0  0  0
    1.4514    0.4735    2.2603 S   0  0  0  0  0
  1  2  1  0  0  0
  3 25  1  0  0  0
  4 34  1  0  0  0
  5  7  1  0  0  0
  6 12  1  0  0  0
  6 23  1  0  0  0
  8 27  1  0  0  0
  8 34  1  0  0  0
 10 13  1  0  0  0
 10 26  1  0  0  0
 11 26  1  0  0  0
 12 14  1  0  0  0
 13 29  1  0  0  0
 14 28  1  0  0  0
 15  5  1  0  0  0
 15 17  1  0  0  0
 16  7  1  0  0  0
 16 17  1  0  0  0
 18  9  1  0  0  0
 18 22  1  0  0  0
 18 35  1  0  0  0
 19 11  1  0  0  0
 19 20  1  0  0  0
 19 28  1  0  0  0
 20 26  1  0  0  0
 20 35  1  0  0  0
 21 33  1  0  0  0
 22 25  1  0  0  0
 24 33  1  0  0  0
  1  3  2  0  0  0
  2  5  2  0  0  0
  4  6  2  0  0  0
  7 25  2  0  0  0
  8 23  2  0  0  0
  9 10  2  0  0  0
 11 30  2  0  0  0
 12 24  2  0  0  0
 13 31  2  0  0  0
 14 32  2  0  0  0
M  CHG  2  25   1  29  -1
M  END
> <rmsd>
0.0770385414

$$$$
ZINC21983161


 35 39  0  0  0  0  0  0  0  0999 V2000
    5.5640   -2.4485    2.5083 C   0  0  0  0  0
    6.5612   -2.2100    3.4551 C   0  0  0  0  0
    5.3431   -1.5234    1.4844 C   0  0  0  0  0
   -2.5768   -1.1886   -0.9371 C   0  0  0  0  0
    7.2949   -1.0459    3.3482 C   0  0  0  0  0
   -3.3871   -0.4584   -0.0933 C   0  0  0  0  0
    7.0372   -0.1619    2.3109 C   0  0  0  0  0
   -4.4644   -2.3670   -0.0147 C   0  0  0  0  0
    3.4999    0.8474   -0.5711 C   0  0  0  0  0
    4.4234    1.0172    0.4045 C   0  0  0  0  0
    1.1172    1.4794   -1.1551 C   0  0  0  0  0
   -3.1507    0.9699    0.2497 C   0  0  0  0  0
    3.9070    0.2568   -1.9156 C   0  0  0  0  0
   -1.9628    1.6754   -0.3497 C   0  0  0  0  0
    8.4287   -0.5520    4.1845 C   0  0  0  0  0
    7.9552    1.0140    2.3237 C   0  0  0  0  0
    4.1317    1.7312    1.7244 C   0  0  0  0  0
    8.4845    0.9308    3.7659 C   0  0  0  0  0
    0.4316    2.1547    0.0693 C   0  0  0  0  0
    1.6351    1.6188    0.8759 C   0  0  0  0  0
   -4.4655    3.5441    2.1409 C   0  0  0  0  0
    5.8471    0.5226    0.3246 C   0  0  0  0  0
   -4.4703   -1.1323    0.4362 N   0  0  0  0  0
   -3.9484    1.6016    1.0572 N   0  0  0  0  0
    6.0880   -0.4081    1.4096 N   0  0  0  0  0
    2.2203    1.2719   -0.4053 N   0  0  0  0  0
   -5.3936   -3.3052    0.3087 N   0  0  0  0  0
   -0.8502    1.5587    0.4372 N   0  0  0  0  0
    3.8243   -0.9974   -1.9856 O   0  0  0  0  0
    0.8410    1.2782   -2.3143 O   0  0  0  0  0
    4.2703    1.1034   -2.7734 O   0  0  0  0  0
   -2.1098    2.2441   -1.4196 O   0  0  0  0  0
   -3.5456    2.9301    1.2516 O   0  0  0  0  0
   -3.1851   -2.7859   -1.0792 S   0  0  0  0  0
    2.6883    2.8482    1.6743 S   0  0  0  0  0
  1  2  1  0  0  0
  3 25  1  0  0  0
  4 34  1  0  0  0
  5  7  1  0  0  0
  6 12  1  0  0  0
  6 23  1  0  0  0
  8 27  1  0  0  0
  8 34  1  0  0  0
  9 13  1  0  0  0
  9 26  1  0  0  0
 11 26  1  0  0  0
 12 14  1  0  0  0
 13 29  1  0  0  0
 14 28  1  0  0  0
 15  5  1  0  0  0
 15 18  1  0  0  0
 16  7  1  0  0  0
 16 18  1  0  0  0
 17 10  1  0  0  0
 17 35  1  0  0  0
 19 11  1  0  0  0
 19 20  1  0  0  0
 19 28  1  0  0  0
 20 26  1  0  0  0
 20 35  1  0  0  0
 21 33  1  0  0  0
 22 10  1  0  0  0
 22 25  1  0  0  0
 24 33  1  0  0  0
  1  3  2  0  0  0
  2  5  2  0  0  0
  4  6  2  0  0  0
  7 25  2  0  0  0
  8 23  2  0  0  0
  9 10  2  0  0  0
 11 30  2  0  0  0
 12 24  2  0  0  0
 13 31  2  0  0  0
 14 32  2  0  0  0
M  CHG  2  25   1  29  -1
M  END
> <rmsd>
0.167728394

$$$$
ZINC21983161


 35 39  0  0  0  0  0  0  0  0999 V2000
    5.1670   -3.0564    2.9498 C   0  0  0  0  0
    6.1657   -2.8370    3.8997 C   0  0  0  0  0
    5.0481   -2.1951    1.8557 C   0  0  0  0  0
   -2.7672   -1.3397   -0.7694 C   0  0  0  0  0
    7.0035   -1.7543    3.7247 C   0  0  0  0  0
   -3.5221   -0.4787   -0.0009 C   0  0  0  0  0
    6.8443   -0.9316    2.6195 C   0  0  0  0  0
   -4.7690   -2.2725    0.1925 C   0  0  0  0  0
    3.4620    0.1688   -0.4113 C   0  0  0  0  0
    4.3805    0.3286    0.5706 C   0  0  0  0  0
    1.1564    0.9646   -1.0961 C   0  0  0  0  0
   -3.1631    0.9446    0.2416 C   0  0  0  0  0
    3.8364   -0.5554   -1.6988 C   0  0  0  0  0
   -1.9062    1.4943   -0.3799 C   0  0  0  0  0
    8.1631   -1.3017    4.5489 C   0  0  0  0  0
    7.8647    0.1555    2.5674 C   0  0  0  0  0
    4.1326    1.1632    1.8272 C   0  0  0  0  0
    8.3601    0.1345    4.0238 C   0  0  0  0  0
    0.5143    1.7887    0.0589 C   0  0  0  0  0
    1.6506    1.2100    0.9308 C   0  0  0  0  0
   -4.2709    3.7608    1.9070 C   0  0  0  0  0
    5.7546   -0.2954    0.5607 C   0  0  0  0  0
   -4.6706   -1.0117    0.5512 N   0  0  0  0  0
   -3.9137    1.7039    0.9815 N   0  0  0  0  0
    5.8921   -1.1595    1.7167 N   0  0  0  0  0
    2.2235    0.7168   -0.3074 N   0  0  0  0  0
   -5.7846   -3.0970    0.5622 N   0  0  0  0  0
   -0.8222    1.3386    0.4394 N   0  0  0  0  0
    3.6416   -1.7989   -1.6783 O   0  0  0  0  0
    0.8826    0.7020   -2.2435 O   0  0  0  0  0
    4.2893    0.1884   -2.6078 O   0  0  0  0  0
   -1.9831    1.9916   -1.4918 O   0  0  0  0  0
   -3.3956    3.0021    1.0871 O   0  0  0  0  0
   -3.5152   -2.8826   -0.8079 S   0  0  0  0  0
    2.7973    2.3973    1.6612 S   0  0  0  0  0
  1  2  1  0  0  0
  3 25  1  0  0  0
  4 34  1  0  0  0
  5  7  1  0  0  0
  6 12  1  0  0  0
  6 23  1  0  0  0
  8 27  1  0  0  0
  8 34  1  0  0  0
  9 13  1  0  0  0
  9 26  1  0  0  0
 11 26  1  0  0  0
 12 14  1  0  0  0
 13 29  1  0  0  0
 14 28  1  0  0  0
 15  5  1  0  0  0
 15 18  1  0  0  0
 16  7  1  0  0  0
 16 18  1  0  0  0
 17 10  1  0  0  0
 17 35  1  0  0  0
 19 11  1  0  0  0
 19 20  1  0  0  0
 19 28  1  0  0  0
 20 26  1  0  0  0
 20 35  1  0  0  0
 21 33  1  0  0  0
 22 10  1  0  0  0
 22 25  1  0  0  0
 24 33  1  0  0  0
  1  3  2  0  0  0
  2  5  2  0  0  0
  4  6  2  0  0  0
  7 25  2  0  0  0
  8 23  2  0  0  0
  9 10  2  0  0  0
 11 30  2  0  0  0
 12 24  2  0  0  0
 13 31  2  0  0  0
 14 32  2  0  0  0
M  CHG  2  25   1  29  -1
M  END
> <rmsd>
0.192704916

$$$$
ZINC03922077


 35 39  0  0  0  0  0  0  0  0999 V2000
    3.4400   -4.1631    1.7484 C   0  0  0  0  0
    4.0814   -4.5733    2.9181 C   0  0  0  0  0
    3.7710   -2.9353    1.1689 C   0  0  0  0  0
   -4.2087   -1.2860    0.2910 C   0  0  0  0  0
    5.0250   -3.7319    3.4720 C   0  0  0  0  0
   -3.1736   -0.4825   -0.1390 C   0  0  0  0  0
    5.3185   -2.5248    2.8552 C   0  0  0  0  0
   -2.5632   -2.3532   -1.1076 C   0  0  0  0  0
    3.2528    0.4283   -0.1199 C   0  0  0  0  0
    3.8027   -0.0291    1.0303 C   0  0  0  0  0
    1.2400    1.7237   -0.9631 C   0  0  0  0  0
   -3.0397    0.9556    0.2174 C   0  0  0  0  0
    3.7892   -0.0514   -1.4636 C   0  0  0  0  0
   -1.8628    1.7307   -0.3143 C   0  0  0  0  0
    5.8807   -3.9214    4.6806 C   0  0  0  0  0
    6.3930   -1.7700    3.5634 C   0  0  0  0  0
    3.2196    0.2579    2.4121 C   0  0  0  0  0
    6.3715   -2.4809    4.9276 C   0  0  0  0  0
    0.4725    2.3459    0.2383 C   0  0  0  0  0
    1.7202    1.9723    1.0681 C   0  0  0  0  0
   -4.6047    3.4427    2.0333 C   0  0  0  0  0
    5.0386   -0.8925    1.0979 C   0  0  0  0  0
   -2.2289   -1.0928   -0.9408 N   0  0  0  0  0
   -3.9164    1.5373    0.9792 N   0  0  0  0  0
    4.7041   -2.1515    1.7339 N   0  0  0  0  0
    2.1799    1.2607   -0.1107 N   0  0  0  0  0
   -1.8485   -3.2442   -1.8446 N   0  0  0  0  0
   -0.7924    1.6749    0.5340 N   0  0  0  0  0
    3.2282   -1.0838   -1.9149 O   0  0  0  0  0
    1.0590    1.6079   -2.1525 O   0  0  0  0  0
    4.7200    0.6504   -1.9385 O   0  0  0  0  0
   -1.9826    2.2941   -1.3905 O   0  0  0  0  0
   -3.6026    2.8861    1.1965 O   0  0  0  0  0
   -4.0020   -2.8716   -0.3291 S   0  0  0  0  0
    1.4702    0.7787    2.4020 S   0  0  0  0  0
  1  2  1  0  0  0
  3 25  1  0  0  0
  4 34  1  0  0  0
  5  7  1  0  0  0
  6 12  1  0  0  0
  6 23  1  0  0  0
  8 27  1  0  0  0
  8 34  1  0  0  0
  9 13  1  0  0  0
  9 26  1  0  0  0
 11 26  1  0  0  0
 12 14  1  0  0  0
 13 29  1  0  0  0
 14 28  1  0  0  0
 15  5  1  0  0  0
 15 18  1  0  0  0
 16  7  1  0  0  0
 16 18  1  0  0  0
 17 10  1  0  0  0
 17 35  1  0  0  0
 19 11  1  0  0  0
 19 20  1  0  0  0
 19 28  1  0  0  0
 20 26  1  0  0  0
 20 35  1  0  0  0
 21 33  1  0  0  0
 22 10  1  0  0  0
 22 25  1  0  0  0
 24 33  1  0  0  0
  1  3  2  0  0  0
  2  5  2  0  0  0
  4  6  2  0  0  0
  7 25  2  0  0  0
  8 23  2  0  0  0
  9 10  2  0  0  0
 11 30  2  0  0  0
 12 24  2  0  0  0
 13 31  2  0  0  0
 14 32  2  0  0  0
M  CHG  2  25   1  29  -1
M  END
> <rmsd>
0.402566671

$$$$
ZINC03922077


 35 39  0  0  0  0  0  0  0  0999 V2000
    2.9200   -4.6739    1.7679 C   0  0  0  0  0
    3.5650   -5.0953    2.9317 C   0  0  0  0  0
    3.3386   -3.5050    1.1264 C   0  0  0  0  0
   -4.4871   -1.1673    0.4478 C   0  0  0  0  0
    4.6005   -4.3228    3.4176 C   0  0  0  0  0
   -3.4006   -0.4794   -0.0502 C   0  0  0  0  0
    4.9784   -3.1727    2.7410 C   0  0  0  0  0
   -2.9977   -2.4344   -0.9589 C   0  0  0  0  0
    3.0780   -0.1608   -0.2849 C   0  0  0  0  0
    3.6269   -0.6216    0.8644 C   0  0  0  0  0
    1.1602    1.2796   -1.1140 C   0  0  0  0  0
   -3.1244    0.9532    0.2406 C   0  0  0  0  0
    3.5187   -0.7396   -1.6244 C   0  0  0  0  0
   -1.9030    1.5960   -0.3624 C   0  0  0  0  0
    5.4800   -4.5427    4.6038 C   0  0  0  0  0
    6.1422   -2.4925    3.3803 C   0  0  0  0  0
    3.1239   -0.2288    2.2517 C   0  0  0  0  0
    6.1075   -3.1447    4.7733 C   0  0  0  0  0
    0.4972    2.0158    0.0852 C   0  0  0  0  0
    1.7362    1.5621    0.8877 C   0  0  0  0  0
   -4.3901    3.6419    2.0016 C   0  0  0  0  0
    4.7816   -1.5912    0.9269 C   0  0  0  0  0
   -2.5452   -1.2043   -0.8567 N   0  0  0  0  0
   -3.9161    1.6419    1.0063 N   0  0  0  0  0
    4.3589   -2.7886    1.6262 N   0  0  0  0  0
    2.0856    0.7660   -0.2749 N   0  0  0  0  0
   -2.3942   -3.4151   -1.6813 N   0  0  0  0  0
   -0.8111    1.4755    0.4511 N   0  0  0  0  0
    2.8504   -1.7330   -2.0128 O   0  0  0  0  0
    0.9253    1.1346   -2.2908 O   0  0  0  0  0
    4.4905   -0.1450   -2.1594 O   0  0  0  0  0
   -2.0116    2.1257   -1.4567 O   0  0  0  0  0
   -3.4741    2.9638    1.1558 O   0  0  0  0  0
   -4.4474   -2.7881   -0.1114 S   0  0  0  0  0
    1.4294    0.4492    2.2783 S   0  0  0  0  0
  1  2  1  0  0  0
  3 25  1  0  0  0
  4 34  1  0  0  0
  5  7  1  0  0  0
  6 12  1  0  0  0
  6 23  1  0  0  0
  8 27  1  0  0  0
  8 34  1  0  0  0
  9 13  1  0  0  0
  9 26  1  0  0  0
 11 26  1  0  0  0
 12 14  1  0  0  0
 13 29  1  0  0  0
 14 28  1  0  0  0
 15  5  1  0  0  0
 15 18  1  0  0  0
 16  7  1  0  0  0
 16 18  1  0  0  0
 17 10  1  0  0  0
 17 35  1  0  0  0
 19 11  1  0  0  0
 19 20  1  0  0  0
 19 28  1  0  0  0
 20 26  1  0  0  0
 20 35  1  0  0  0
 21 33  1  0  0  0
 22 10  1  0  0  0
 22 25  1  0  0  0
 24 33  1  0  0  0
  1  3  2  0  0  0
  2  5  2  0  0  0
  4  6  2  0  0  0
  7 25  2  0  0  0
  8 23  2  0  0  0
  9 10  2  0  0  0
 11 30  2  0  0  0
 12 24  2  0  0  0
 13 31  2  0  0  0
 14 32  2  0  0  0
M  CHG  2  25   1  29  -1
M  END
> <rmsd>
0.102973603

$$$$
ZINC26892204


 35 39  0  0  0  0  0  0  0  0999 V2000
    7.6882   -0.0417    3.0307 C   0  0  0  0  0
    7.6512   -0.8955    4.1342 C   0  0  0  0  0
    6.5255    0.6184    2.6241 C   0  0  0  0  0
   -4.2507   -1.2818    0.3208 C   0  0  0  0  0
    6.4459   -1.0659    4.7846 C   0  0  0  0  0
   -3.2525   -0.4494   -0.1405 C   0  0  0  0  0
    5.3217   -0.3849    4.3419 C   0  0  0  0  0
   -2.6719   -2.2795   -1.2006 C   0  0  0  0  0
    3.7008    0.0158    0.6659 C   0  0  0  0  0
    3.1137    0.5187   -0.4340 C   0  0  0  0  0
    1.0798    1.8432   -1.1399 C   0  0  0  0  0
   -3.1184    0.9789    0.2533 C   0  0  0  0  0
    3.6530    0.0422   -1.7657 C   0  0  0  0  0
   -1.9841    1.7882   -0.3183 C   0  0  0  0  0
    6.1208   -1.8776    5.9947 C   0  0  0  0  0
    4.1238   -0.6512    5.1904 C   0  0  0  0  0
    4.5819   -1.9284    5.9155 C   0  0  0  0  0
    3.2396    0.2267    2.0960 C   0  0  0  0  0
    0.3701    2.4220    0.1225 C   0  0  0  0  0
    1.6684    2.0393    0.8706 C   0  0  0  0  0
   -4.6127    3.3841    2.2317 C   0  0  0  0  0
    4.1869    1.1499    2.8559 C   0  0  0  0  0
   -2.3460   -1.0199   -1.0127 N   0  0  0  0  0
   -3.9588    1.5231    1.0809 N   0  0  0  0  0
    5.3752    0.4337    3.2925 N   0  0  0  0  0
    2.0515    1.3492   -0.3469 N   0  0  0  0  0
   -1.9877   -3.1363   -2.0042 N   0  0  0  0  0
   -0.8672    1.7225    0.4669 N   0  0  0  0  0
    3.5754   -1.2034   -1.9606 O   0  0  0  0  0
    0.8451    1.7693   -2.3230 O   0  0  0  0  0
    4.1125    0.9504   -2.5137 O   0  0  0  0  0
   -2.1718    2.3827   -1.3676 O   0  0  0  0  0
   -3.6517    2.8693    1.3231 O   0  0  0  0  0
   -4.0575   -2.8440   -0.3599 S   0  0  0  0  0
    1.5047    0.8362    2.2141 S   0  0  0  0  0
  1  2  1  0  0  0
  3 25  1  0  0  0
  4 34  1  0  0  0
  5  7  1  0  0  0
  6 12  1  0  0  0
  6 23  1  0  0  0
  8 27  1  0  0  0
  8 34  1  0  0  0
 10 13  1  0  0  0
 10 26  1  0  0  0
 11 26  1  0  0  0
 12 14  1  0  0  0
 13 29  1  0  0  0
 14 28  1  0  0  0
 15  5  1  0  0  0
 15 17  1  0  0  0
 16  7  1  0  0  0
 16 17  1  0  0  0
 18  9  1  0  0  0
 18 22  1  0  0  0
 18 35  1  0  0  0
 19 11  1  0  0  0
 19 20  1  0  0  0
 19 28  1  0  0  0
 20 26  1  0  0  0
 20 35  1  0  0  0
 21 33  1  0  0  0
 22 25  1  0  0  0
 24 33  1  0  0  0
  1  3  2  0  0  0
  2  5  2  0  0  0
  4  6  2  0  0  0
  7 25  2  0  0  0
  8 23  2  0  0  0
  9 10  2  0  0  0
 11 30  2  0  0  0
 12 24  2  0  0  0
 13 31  2  0  0  0
 14 32  2  0  0  0
M  CHG  2  25   1  29  -1
M  END
> <rmsd>
0.366885394

$$$$
ZINC26892204


 35 39  0  0  0  0  0  0  0  0999 V2000
    7.5081   -0.9132    3.2165 C   0  0  0  0  0
    7.3819   -1.6854    4.3722 C   0  0  0  0  0
    6.4172   -0.1725    2.7536 C   0  0  0  0  0
   -4.4779   -1.1747    0.4442 C   0  0  0  0  0
    6.1618   -1.6962    5.0172 C   0  0  0  0  0
   -3.4010   -0.4742   -0.0574 C   0  0  0  0  0
    5.1115   -0.9408    4.5175 C   0  0  0  0  0
   -2.9938   -2.4170   -0.9898 C   0  0  0  0  0
    3.5595   -0.6276    0.8035 C   0  0  0  0  0
    3.0305   -0.1438   -0.3338 C   0  0  0  0  0
    1.1387    1.3211   -1.1489 C   0  0  0  0  0
   -3.1319    0.9574    0.2449 C   0  0  0  0  0
    3.5294   -0.7560   -1.6251 C   0  0  0  0  0
   -1.9211    1.6147   -0.3636 C   0  0  0  0  0
    5.7524   -2.3920    6.2731 C   0  0  0  0  0
    3.8883   -1.0346    5.3665 C   0  0  0  0  0
    4.2163   -2.2997    6.1782 C   0  0  0  0  0
    3.1121   -0.2802    2.2112 C   0  0  0  0  0
    0.4806    2.0468    0.0646 C   0  0  0  0  0
    1.7311    1.5909    0.8519 C   0  0  0  0  0
   -4.3986    3.6194    2.0452 C   0  0  0  0  0
    4.1396    0.5954    2.9216 C   0  0  0  0  0
   -2.5487   -1.1849   -0.8797 N   0  0  0  0  0
   -3.9207    1.6329    1.0252 N   0  0  0  0  0
    5.2504   -0.2016    3.4183 N   0  0  0  0  0
    2.0532    0.7890   -0.3136 N   0  0  0  0  0
   -2.3907   -3.3863   -1.7279 N   0  0  0  0  0
   -0.8206    1.4936    0.4380 N   0  0  0  0  0
    3.3329   -1.9985   -1.7401 O   0  0  0  0  0
    0.9052    1.1928   -2.3276 O   0  0  0  0  0
    4.0791    0.0529   -2.4245 O   0  0  0  0  0
   -2.0440    2.1546   -1.4513 O   0  0  0  0  0
   -3.4864    2.9562    1.1837 O   0  0  0  0  0
   -4.4326   -2.7895   -0.1317 S   0  0  0  0  0
    1.4437    0.4997    2.2682 S   0  0  0  0  0
  1  2  1  0  0  0
  3 25  1  0  0  0
  4 34  1  0  0  0
  5  7  1  0  0  0
  6 12  1  0  0  0
  6 23  1  0  0  0
  8 27  1  0  0  0
  8 34  1  0  0  0
 10 13  1  0  0  0
 10 26  1  0  0  0
 11 26  1  0  0  0
 12 14  1  0  0  0
 13 29  1  0  0  0
 14 28  1  0  0  0
 15  5  1  0  0  0
 15 17  1  0  0  0
 16  7  1  0  0  0
 16 17  1  0  0  0
 18  9  1  0  0  0
 18 22  1  0  0  0
 18 35  1  0  0  0
 19 11  1  0  0  0
 19 20  1  0  0  0
 19 28  1  0  0  0
 20 26  1  0  0  0
 20 35  1  0  0  0
 21 33  1  0  0  0
 22 25  1  0  0  0
 24 33  1  0  0  0
  1  3  2  0  0  0
  2  5  2  0  0  0
  4  6  2  0  0  0
  7 25  2  0  0  0
  8 23  2  0  0  0
  9 10  2  0  0  0
 11 30  2  0  0  0
 12 24  2  0  0  0
 13 31  2  0  0  0
 14 32  2  0  0  0
M  CHG  2  25   1  29  -1
M  END
> <rmsd>
0.116840743

$$$$
ZINC08892312


 36 39  0  0  0  0  0  0  0  0999 V2000
   -4.0175   -3.4271   -0.2637 C   0  0  0  0  0
   -4.7256   -2.5220    0.5267 C   0  0  0  0  0
    0.4226   -1.6751   -5.0049 C   0  0  0  0  0
   -1.1966    0.1134   -4.8765 C   0  0  0  0  0
    1.1613   -0.9397   -5.9318 C   0  0  0  0  0
   -0.4578    0.8488   -5.8033 C   0  0  0  0  0
    1.0852    0.0552    0.3794 C   0  0  0  0  0
   -3.2157   -2.9636   -1.3068 C   0  0  0  0  0
   -4.6321   -1.1534    0.2740 C   0  0  0  0  0
    2.1105   -0.3876   -0.4628 C   0  0  0  0  0
    1.6399    1.3700   -2.0806 C   0  0  0  0  0
   -0.7564   -1.1486   -4.4773 C   0  0  0  0  0
    0.7211    0.3223   -6.3310 C   0  0  0  0  0
    0.6061    1.8283   -1.2467 C   0  0  0  0  0
    0.3567    1.1655   -0.0483 C   0  0  0  0  0
   -3.1221   -1.5951   -1.5595 C   0  0  0  0  0
   -3.8303   -0.6899   -0.7690 C   0  0  0  0  0
    2.3847    0.2567   -1.6714 C   0  0  0  0  0
   -1.0240    2.8691   -0.3417 C   0  0  0  0  0
   -1.5366   -1.9245   -3.4982 C   0  0  0  0  0
   -3.8737    1.7282   -0.0747 C   0  0  0  0  0
   -3.7307    3.0936   -0.7120 C   0  0  0  0  0
    1.5108    1.1074   -7.3234 C   0  0  0  0  0
   -0.2613    2.8837   -1.4118 N   0  0  0  0  0
   -0.6907    1.8526    0.5097 N   0  0  0  0  0
   -2.3122   -1.1547   -2.6104 N   0  0  0  0  0
   -3.7517    0.7035   -1.0058 N   0  0  0  0  0
    3.4347   -0.2239   -2.5000 N   0  0  0  0  0
    4.0952   -1.2218   -2.1248 O   0  0  0  0  0
   -1.4668   -3.1512   -3.4628 O   0  0  0  0  0
   -4.0891    1.6221    1.1301 O   0  0  0  0  0
    3.6703    0.3633   -3.5828 O   0  0  0  0  0
    2.6384    0.4683   -7.7543 F   0  0  0  0  0
    0.8156    1.4082   -8.4600 F   0  0  0  0  0
    1.9360    2.3053   -6.8264 F   0  0  0  0  0
   -2.3132    3.9459    0.0404 S   0  0  0  0  0
  1  2  1  0  0  0
  3 12  1  0  0  0
  4  6  1  0  0  0
  5 13  1  0  0  0
  7 15  1  0  0  0
  8 16  1  0  0  0
  9 17  1  0  0  0
 10 18  1  0  0  0
 11 14  1  0  0  0
 12 20  1  0  0  0
 14 24  1  0  0  0
 15 25  1  0  0  0
 16 26  1  0  0  0
 17 27  1  0  0  0
 18 28  1  0  0  0
 19 25  1  0  0  0
 19 36  1  0  0  0
 20 26  1  0  0  0
 21 27  1  0  0  0
 22 21  1  0  0  0
 22 36  1  0  0  0
 23 13  1  0  0  0
 23 33  1  0  0  0
 23 34  1  0  0  0
 23 35  1  0  0  0
 28 29  1  0  0  0
  1  8  2  0  0  0
  2  9  2  0  0  0
  3  5  2  0  0  0
  4 12  2  0  0  0
  6 13  2  0  0  0
  7 10  2  0  0  0
 11 18  2  0  0  0
 14 15  2  0  0  0
 16 17  2  0  0  0
 19 24  2  0  0  0
 20 30  2  0  0  0
 21 31  2  0  0  0
 28 32  2  0  0  0
M  CHG  2  28   1  29  -1
M  END
> <rmsd>
0.520906031

$$$$
ZINC21986101


 35 39  0  0  0  0  0  0  0  0999 V2000
   10.3235    0.3900    1.6068 C   0  0  0  0  0
    9.1081    0.7186    1.0194 C   0  0  0  0  0
   10.4053   -0.7217    2.4348 C   0  0  0  0  0
    8.0147   -0.0737    1.2876 C   0  0  0  0  0
   -3.3971   -0.4925   -0.0526 C   0  0  0  0  0
   -3.0033   -2.4333   -0.9545 C   0  0  0  0  0
    3.0809   -0.1588   -0.2857 C   0  0  0  0  0
    3.6304   -0.6173    0.8641 C   0  0  0  0  0
    1.1598    1.2764   -1.1167 C   0  0  0  0  0
   -3.1244    0.9410    0.2370 C   0  0  0  0  0
    3.5232   -0.7376   -1.6247 C   0  0  0  0  0
   -1.9044    1.5862   -0.3661 C   0  0  0  0  0
    6.6220    0.0269    0.7889 C   0  0  0  0  0
    3.1261   -0.2246    2.2508 C   0  0  0  0  0
    6.8467   -1.8497    2.2013 C   0  0  0  0  0
    0.4948    2.0121    0.0818 C   0  0  0  0  0
    1.7346    1.5619    0.8850 C   0  0  0  0  0
   -4.3969    3.6282    1.9954 C   0  0  0  0  0
    4.7875   -1.5841    0.9277 C   0  0  0  0  0
    9.3707   -1.5362    2.7238 N   0  0  0  0  0
   -2.5341   -1.2082   -0.8652 N   0  0  0  0  0
   -4.4732   -1.0724    0.4784 N   0  0  0  0  0
   -3.9178    1.6284    1.0019 N   0  0  0  0  0
    8.1093   -1.1410    2.0794 N   0  0  0  0  0
    2.0862    0.7656   -0.2768 N   0  0  0  0  0
    5.8631   -0.9136    1.6395 N   0  0  0  0  0
   -2.4517   -3.4515   -1.6611 N   0  0  0  0  0
   -0.8124    1.4688    0.4478 N   0  0  0  0  0
    2.8575   -1.7330   -2.0125 O   0  0  0  0  0
    0.9256    1.1298   -2.2933 O   0  0  0  0  0
    4.4938   -0.1412   -2.1599 O   0  0  0  0  0
   -2.0138    2.1147   -1.4608 O   0  0  0  0  0
   -3.4791    2.9514    1.1505 O   0  0  0  0  0
   -4.4501   -2.6571   -0.0592 S   0  0  0  0  0
    1.4302    0.4494    2.2764 S   0  0  0  0  0
  1  3  1  0  0  0
  2  4  1  0  0  0
  5 10  1  0  0  0
  5 21  1  0  0  0
  6 27  1  0  0  0
  6 34  1  0  0  0
  7 11  1  0  0  0
  7 25  1  0  0  0
  9 25  1  0  0  0
 10 12  1  0  0  0
 11 29  1  0  0  0
 12 28  1  0  0  0
 13  4  1  0  0  0
 13 26  1  0  0  0
 14  8  1  0  0  0
 14 35  1  0  0  0
 15 24  1  0  0  0
 15 26  1  0  0  0
 16  9  1  0  0  0
 16 17  1  0  0  0
 16 28  1  0  0  0
 17 25  1  0  0  0
 17 35  1  0  0  0
 18 33  1  0  0  0
 19  8  1  0  0  0
 19 26  1  0  0  0
 22 34  1  0  0  0
 23 33  1  0  0  0
 24 20  1  0  0  0
  1  2  2  0  0  0
  3 20  2  0  0  0
  4 24  2  0  0  0
  5 22  2  0  0  0
  6 21  2  0  0  0
  7  8  2  0  0  0
  9 30  2  0  0  0
 10 23  2  0  0  0
 11 31  2  0  0  0
 12 32  2  0  0  0
M  CHG  2  24   1  29  -1
M  END
> <rmsd>
0.0980948582

$$$$
ZINC21986101


 35 39  0  0  0  0  0  0  0  0999 V2000
   10.3492    1.5524    2.0609 C   0  0  0  0  0
    9.1292    1.7946    1.4420 C   0  0  0  0  0
   10.5050    0.4185    2.8470 C   0  0  0  0  0
    8.1048    0.8960    1.6379 C   0  0  0  0  0
   -3.1689   -0.4951   -0.1424 C   0  0  0  0  0
   -2.5685   -2.3522   -1.1046 C   0  0  0  0  0
    3.2552    0.4323   -0.1205 C   0  0  0  0  0
    3.8056   -0.0231    1.0301 C   0  0  0  0  0
    1.2394    1.7221   -0.9654 C   0  0  0  0  0
   -3.0389    0.9436    0.2134 C   0  0  0  0  0
    3.7935   -0.0466   -1.4637 C   0  0  0  0  0
   -1.8637    1.7215   -0.3181 C   0  0  0  0  0
    6.7262    0.8914    1.0919 C   0  0  0  0  0
    3.2211    0.2630    2.4114 C   0  0  0  0  0
    7.0748   -1.0156    2.4369 C   0  0  0  0  0
    0.4698    2.3430    0.2354 C   0  0  0  0  0
    1.7180    1.9730    1.0660 C   0  0  0  0  0
   -4.6111    3.4274    2.0274 C   0  0  0  0  0
    5.0438   -0.8832    1.0988 C   0  0  0  0  0
    9.5404   -0.4977    3.0651 N   0  0  0  0  0
   -2.2171   -1.0947   -0.9498 N   0  0  0  0  0
   -4.2044   -1.1920    0.3249 N   0  0  0  0  0
   -3.9173    1.5233    0.9745 N   0  0  0  0  0
    8.2703   -0.1911    2.3901 N   0  0  0  0  0
    2.1801    1.2618   -0.1124 N   0  0  0  0  0
    6.0288   -0.1491    1.8761 N   0  0  0  0  0
   -1.9024   -3.2855   -1.8295 N   0  0  0  0  0
   -0.7935    1.6687    0.5308 N   0  0  0  0  0
    3.2354   -1.0807   -1.9149 O   0  0  0  0  0
    1.0593    1.6051   -2.1548 O   0  0  0  0  0
    4.7227    0.6573   -1.9386 O   0  0  0  0  0
   -1.9844    2.2840   -1.3945 O   0  0  0  0  0
   -3.6071    2.8730    1.1913 O   0  0  0  0  0
   -4.0178   -2.7438   -0.2733 S   0  0  0  0  0
    1.4706    0.7793    2.4003 S   0  0  0  0  0
  1  3  1  0  0  0
  2  4  1  0  0  0
  5 10  1  0  0  0
  5 21  1  0  0  0
  6 27  1  0  0  0
  6 34  1  0  0  0
  7 11  1  0  0  0
  7 25  1  0  0  0
  9 25  1  0  0  0
 10 12  1  0  0  0
 11 29  1  0  0  0
 12 28  1  0  0  0
 13  4  1  0  0  0
 13 26  1  0  0  0
 14  8  1  0  0  0
 14 35  1  0  0  0
 15 24  1  0  0  0
 15 26  1  0  0  0
 16  9  1  0  0  0
 16 17  1  0  0  0
 16 28  1  0  0  0
 17 25  1  0  0  0
 17 35  1  0  0  0
 18 33  1  0  0  0
 19  8  1  0  0  0
 19 26  1  0  0  0
 22 34  1  0  0  0
 23 33  1  0  0  0
 24 20  1  0  0  0
  1  2  2  0  0  0
  3 20  2  0  0  0
  4 24  2  0  0  0
  5 22  2  0  0  0
  6 21  2  0  0  0
  7  8  2  0  0  0
  9 30  2  0  0  0
 10 23  2  0  0  0
 11 31  2  0  0  0
 12 32  2  0  0  0
M  CHG  2  24   1  29  -1
M  END
> <rmsd>
0.396815687

$$$$
ZINC21986101


 35 39  0  0  0  0  0  0  0  0999 V2000
   10.3522    1.5526    2.0946 C   0  0  0  0  0
    9.1338    1.7972    1.4735 C   0  0  0  0  0
   10.5067    0.4144    2.8748 C   0  0  0  0  0
    8.1096    0.8966    1.6614 C   0  0  0  0  0
   -3.1577   -0.4940   -0.1592 C   0  0  0  0  0
   -4.1012   -2.4549   -0.1547 C   0  0  0  0  0
    3.2655    0.4387   -0.1135 C   0  0  0  0  0
    3.8130   -0.0227    1.0361 C   0  0  0  0  0
    1.2511    1.7315   -0.9570 C   0  0  0  0  0
   -3.0299    0.9427    0.2050 C   0  0  0  0  0
    3.8081   -0.0322   -1.4579 C   0  0  0  0  0
   -1.8539    1.7246   -0.3186 C   0  0  0  0  0
    6.7326    0.8939    1.1114 C   0  0  0  0  0
    3.2243    0.2551    2.4173 C   0  0  0  0  0
    7.0790   -1.0203    2.4467 C   0  0  0  0  0
    0.4775    2.3449    0.2451 C   0  0  0  0  0
    1.7236    1.9713    1.0771 C   0  0  0  0  0
   -4.6095    3.4150    2.0284 C   0  0  0  0  0
    5.0518   -0.8821    1.1034 C   0  0  0  0  0
    9.5423   -0.5039    3.0849 N   0  0  0  0  0
   -4.2306   -1.2320    0.3110 N   0  0  0  0  0
   -2.2334   -1.0543   -0.9392 N   0  0  0  0  0
   -3.9111    1.5173    0.9669 N   0  0  0  0  0
    8.2739   -0.1946    2.4079 N   0  0  0  0  0
    2.1897    1.2672   -0.1038 N   0  0  0  0  0
    6.0339   -0.1516    1.8877 N   0  0  0  0  0
   -4.9451   -3.4919    0.0753 N   0  0  0  0  0
   -0.7861    1.6680    0.5330 N   0  0  0  0  0
    3.2522   -1.0642   -1.9165 O   0  0  0  0  0
    1.0745    1.6211   -2.1476 O   0  0  0  0  0
    4.7380    0.6752   -1.9261 O   0  0  0  0  0
   -1.9720    2.2930   -1.3922 O   0  0  0  0  0
   -3.6027    2.8661    1.1922 O   0  0  0  0  0
   -2.7025   -2.6494   -1.1297 S   0  0  0  0  0
    1.4733    0.7699    2.4040 S   0  0  0  0  0
  1  3  1  0  0  0
  2  4  1  0  0  0
  5 10  1  0  0  0
  5 21  1  0  0  0
  6 27  1  0  0  0
  6 34  1  0  0  0
  7 11  1  0  0  0
  7 25  1  0  0  0
  9 25  1  0  0  0
 10 12  1  0  0  0
 11 29  1  0  0  0
 12 28  1  0  0  0
 13  4  1  0  0  0
 13 26  1  0  0  0
 14  8  1  0  0  0
 14 35  1  0  0  0
 15 24  1  0  0  0
 15 26  1  0  0  0
 16  9  1  0  0  0
 16 17  1  0  0  0
 16 28  1  0  0  0
 17 25  1  0  0  0
 17 35  1  0  0  0
 18 33  1  0  0  0
 19  8  1  0  0  0
 19 26  1  0  0  0
 22 34  1  0  0  0
 23 33  1  0  0  0
 24 20  1  0  0  0
  1  2  2  0  0  0
  3 20  2  0  0  0
  4 24  2  0  0  0
  5 22  2  0  0  0
  6 21  2  0  0  0
  7  8  2  0  0  0
  9 30  2  0  0  0
 10 23  2  0  0  0
 11 31  2  0  0  0
 12 32  2  0  0  0
M  CHG  2  24   1  29  -1
M  END
> <rmsd>
0.365345448

$$$$
ZINC21986101


 35 39  0  0  0  0  0  0  0  0999 V2000
   10.3288    0.3929    1.6325 C   0  0  0  0  0
    9.1147    0.7238    1.0436 C   0  0  0  0  0
   10.4094   -0.7234    2.4543 C   0  0  0  0  0
    8.0213   -0.0712    1.3042 C   0  0  0  0  0
   -3.3862   -0.4934   -0.0704 C   0  0  0  0  0
   -4.5019   -2.3579    0.0491 C   0  0  0  0  0
    3.0920   -0.1521   -0.2834 C   0  0  0  0  0
    3.6388   -0.6166    0.8653 C   0  0  0  0  0
    1.1719    1.2860   -1.1115 C   0  0  0  0  0
   -3.1157    0.9387    0.2283 C   0  0  0  0  0
    3.5387   -0.7228   -1.6244 C   0  0  0  0  0
   -1.8947    1.5885   -0.3678 C   0  0  0  0  0
    6.6299    0.0309    0.8021 C   0  0  0  0  0
    3.1302   -0.2324    2.2528 C   0  0  0  0  0
    6.8525   -1.8535    2.2045 C   0  0  0  0  0
    0.5028    2.0141    0.0893 C   0  0  0  0  0
    1.7407    1.5606    0.8934 C   0  0  0  0  0
   -4.3959    3.6144    1.9984 C   0  0  0  0  0
    4.7967   -1.5826    0.9266 C   0  0  0  0  0
    9.3748   -1.5405    2.7358 N   0  0  0  0  0
   -4.5027   -1.1111    0.4669 N   0  0  0  0  0
   -2.5464   -1.1660   -0.8571 N   0  0  0  0  0
   -3.9120    1.6209    0.9948 N   0  0  0  0  0
    8.1148   -1.1430    2.0901 N   0  0  0  0  0
    2.0964    0.7712   -0.2720 N   0  0  0  0  0
    5.8696   -0.9152    1.6453 N   0  0  0  0  0
   -5.4264   -3.3034    0.3514 N   0  0  0  0  0
   -0.8049    1.4675    0.4485 N   0  0  0  0  0
    2.8751   -1.7166   -2.0198 O   0  0  0  0  0
    0.9412    1.1459   -2.2896 O   0  0  0  0  0
    4.5102   -0.1224   -2.1535 O   0  0  0  0  0
   -2.0016    2.1231   -1.4598 O   0  0  0  0  0
   -3.4750    2.9434    1.1522 O   0  0  0  0  0
   -3.1643   -2.7175   -0.9640 S   0  0  0  0  0
    1.4336    0.4398    2.2775 S   0  0  0  0  0
  1  3  1  0  0  0
  2  4  1  0  0  0
  5 10  1  0  0  0
  5 21  1  0  0  0
  6 27  1  0  0  0
  6 34  1  0  0  0
  7 11  1  0  0  0
  7 25  1  0  0  0
  9 25  1  0  0  0
 10 12  1  0  0  0
 11 29  1  0  0  0
 12 28  1  0  0  0
 13  4  1  0  0  0
 13 26  1  0  0  0
 14  8  1  0  0  0
 14 35  1  0  0  0
 15 24  1  0  0  0
 15 26  1  0  0  0
 16  9  1  0  0  0
 16 17  1  0  0  0
 16 28  1  0  0  0
 17 25  1  0  0  0
 17 35  1  0  0  0
 18 33  1  0  0  0
 19  8  1  0  0  0
 19 26  1  0  0  0
 22 34  1  0  0  0
 23 33  1  0  0  0
 24 20  1  0  0  0
  1  2  2  0  0  0
  3 20  2  0  0  0
  4 24  2  0  0  0
  5 22  2  0  0  0
  6 21  2  0  0  0
  7  8  2  0  0  0
  9 30  2  0  0  0
 10 23  2  0  0  0
 11 31  2  0  0  0
 12 32  2  0  0  0
M  CHG  2  24   1  29  -1
M  END
> <rmsd>
0.0658917055

$$$$
ZINC21986098


 35 39  0  0  0  0  0  0  0  0999 V2000
    8.3789   -4.0396    3.0871 C   0  0  0  0  0
    8.5546   -2.6893    2.8115 C   0  0  0  0  0
    7.1926   -4.6637    2.7245 C   0  0  0  0  0
    7.5325   -2.0089    2.1885 C   0  0  0  0  0
   -3.3999   -0.4711   -0.0731 C   0  0  0  0  0
   -2.9693   -2.3685   -1.0476 C   0  0  0  0  0
    3.4843    0.8373   -0.5831 C   0  0  0  0  0
    4.4107    1.0157    0.3881 C   0  0  0  0  0
    1.0991    1.4624   -1.1646 C   0  0  0  0  0
   -3.1638    0.9599    0.2578 C   0  0  0  0  0
    3.8877    0.2364   -1.9241 C   0  0  0  0  0
   -1.9785    1.6618   -0.3511 C   0  0  0  0  0
    7.4560   -0.5912    1.7609 C   0  0  0  0  0
    4.1225    1.7400    1.7032 C   0  0  0  0  0
    5.4741   -1.7272    1.1706 C   0  0  0  0  0
    0.4167    2.1468    0.0567 C   0  0  0  0  0
    1.6233    1.6185    0.8636 C   0  0  0  0  0
   -4.4751    3.5479    2.1327 C   0  0  0  0  0
    5.8345    0.5219    0.3076 C   0  0  0  0  0
    6.1648   -4.0491    2.1055 N   0  0  0  0  0
   -2.5353   -1.1331   -0.9282 N   0  0  0  0  0
   -4.4454   -1.1010    0.4626 N   0  0  0  0  0
   -3.9595    1.5974    1.0628 N   0  0  0  0  0
    6.4021   -2.6220    1.8408 N   0  0  0  0  0
    2.2049    1.2619   -0.4167 N   0  0  0  0  0
    6.0315   -0.3910    1.4216 N   0  0  0  0  0
   -2.4040   -3.3457   -1.7997 N   0  0  0  0  0
   -0.8633    1.5525    0.4334 N   0  0  0  0  0
    3.8061   -1.0184   -1.9839 O   0  0  0  0  0
    0.8194    1.2516   -2.3212 O   0  0  0  0  0
    4.2475    1.0764   -2.7899 O   0  0  0  0  0
   -2.1295    2.2219   -1.4249 O   0  0  0  0  0
   -3.5574    2.9278    1.2453 O   0  0  0  0  0
   -4.3871   -2.6659   -0.1277 S   0  0  0  0  0
    2.6779    2.8552    1.6488 S   0  0  0  0  0
  1  3  1  0  0  0
  2  4  1  0  0  0
  5 10  1  0  0  0
  5 21  1  0  0  0
  6 27  1  0  0  0
  6 34  1  0  0  0
  7 11  1  0  0  0
  7 25  1  0  0  0
  9 25  1  0  0  0
 10 12  1  0  0  0
 11 29  1  0  0  0
 12 28  1  0  0  0
 13  4  1  0  0  0
 13 26  1  0  0  0
 14  8  1  0  0  0
 14 35  1  0  0  0
 15 24  1  0  0  0
 15 26  1  0  0  0
 16  9  1  0  0  0
 16 17  1  0  0  0
 16 28  1  0  0  0
 17 25  1  0  0  0
 17 35  1  0  0  0
 18 33  1  0  0  0
 19  8  1  0  0  0
 19 26  1  0  0  0
 22 34  1  0  0  0
 23 33  1  0  0  0
 24 20  1  0  0  0
  1  2  2  0  0  0
  3 20  2  0  0  0
  4 24  2  0  0  0
  5 22  2  0  0  0
  6 21  2  0  0  0
  7  8  2  0  0  0
  9 30  2  0  0  0
 10 23  2  0  0  0
 11 31  2  0  0  0
 12 32  2  0  0  0
M  CHG  2  24   1  29  -1
M  END
> <rmsd>
0.191296518

$$$$
ZINC21986098


 35 39  0  0  0  0  0  0  0  0999 V2000
    7.8117   -4.8467    3.7188 C   0  0  0  0  0
    8.1143   -3.5421    3.3493 C   0  0  0  0  0
    6.5802   -5.3878    3.3741 C   0  0  0  0  0
    7.1695   -2.8218    2.6534 C   0  0  0  0  0
   -3.5362   -0.4877    0.0195 C   0  0  0  0  0
   -3.2628   -2.4839   -0.8025 C   0  0  0  0  0
    3.4464    0.1582   -0.4173 C   0  0  0  0  0
    4.3679    0.3256    0.5606 C   0  0  0  0  0
    1.1385    0.9484   -1.1009 C   0  0  0  0  0
   -3.1769    0.9373    0.2502 C   0  0  0  0  0
    3.8170   -0.5756   -1.7004 C   0  0  0  0  0
   -1.9220    1.4826   -0.3794 C   0  0  0  0  0
    7.2297   -1.4392    2.1212 C   0  0  0  0  0
    4.1236    1.1696    1.8116 C   0  0  0  0  0
    5.1634   -2.4347    1.5677 C   0  0  0  0  0
    0.4997    1.7810    0.0499 C   0  0  0  0  0
    1.6389    1.2091    0.9226 C   0  0  0  0  0
   -4.2803    3.7658    1.8978 C   0  0  0  0  0
    5.7420   -0.2981    0.5512 C   0  0  0  0  0
    5.6236   -4.7321    2.6868 N   0  0  0  0  0
   -2.7204   -1.2867   -0.7635 N   0  0  0  0  0
   -4.6439   -0.9797    0.5743 N   0  0  0  0  0
   -3.9254    1.7020    0.9867 N   0  0  0  0  0
    5.9943   -3.3559    2.3241 N   0  0  0  0  0
    2.2082    0.7067   -0.3137 N   0  0  0  0  0
    5.8356   -1.1386    1.7336 N   0  0  0  0  0
   -2.7755   -3.5615   -1.4670 N   0  0  0  0  0
   -0.8355    1.3334    0.4379 N   0  0  0  0  0
    3.6227   -1.8190   -1.6699 O   0  0  0  0  0
    0.8613    0.6771   -2.2454 O   0  0  0  0  0
    4.2670    0.1615   -2.6163 O   0  0  0  0  0
   -2.0025    1.9717   -1.4948 O   0  0  0  0  0
   -3.4073    3.0011    1.0809 O   0  0  0  0  0
   -4.7178   -2.5834    0.1019 S   0  0  0  0  0
    2.7875    2.4022    1.6405 S   0  0  0  0  0
  1  3  1  0  0  0
  2  4  1  0  0  0
  5 10  1  0  0  0
  5 21  1  0  0  0
  6 27  1  0  0  0
  6 34  1  0  0  0
  7 11  1  0  0  0
  7 25  1  0  0  0
  9 25  1  0  0  0
 10 12  1  0  0  0
 11 29  1  0  0  0
 12 28  1  0  0  0
 13  4  1  0  0  0
 13 26  1  0  0  0
 14  8  1  0  0  0
 14 35  1  0  0  0
 15 24  1  0  0  0
 15 26  1  0  0  0
 16  9  1  0  0  0
 16 17  1  0  0  0
 16 28  1  0  0  0
 17 25  1  0  0  0
 17 35  1  0  0  0
 18 33  1  0  0  0
 19  8  1  0  0  0
 19 26  1  0  0  0
 22 34  1  0  0  0
 23 33  1  0  0  0
 24 20  1  0  0  0
  1  2  2  0  0  0
  3 20  2  0  0  0
  4 24  2  0  0  0
  5 22  2  0  0  0
  6 21  2  0  0  0
  7  8  2  0  0  0
  9 30  2  0  0  0
 10 23  2  0  0  0
 11 31  2  0  0  0
 12 32  2  0  0  0
M  CHG  2  24   1  29  -1
M  END
> <rmsd>
0.167742729

$$$$
ZINC21986098


 35 39  0  0  0  0  0  0  0  0999 V2000
    7.8183   -4.8549    3.7078 C   0  0  0  0  0
    8.1203   -3.5480    3.3459 C   0  0  0  0  0
    6.5883   -5.3957    3.3571 C   0  0  0  0  0
    7.1763   -2.8253    2.6514 C   0  0  0  0  0
   -3.5255   -0.4904    0.0023 C   0  0  0  0  0
   -4.7508   -2.2779    0.1996 C   0  0  0  0  0
    3.4574    0.1663   -0.4132 C   0  0  0  0  0
    4.3762    0.3297    0.5679 C   0  0  0  0  0
    1.1504    0.9572   -1.0986 C   0  0  0  0  0
   -3.1685    0.9338    0.2414 C   0  0  0  0  0
    3.8322   -0.5603   -1.6992 C   0  0  0  0  0
   -1.9127    1.4839   -0.3822 C   0  0  0  0  0
    7.2362   -1.4398    2.1266 C   0  0  0  0  0
    4.1277    1.1668    1.8227 C   0  0  0  0  0
    5.1726   -2.4349    1.5626 C   0  0  0  0  0
    0.5076    1.7830    0.0549 C   0  0  0  0  0
    1.6452    1.2079    0.9275 C   0  0  0  0  0
   -4.2796    3.7522    1.9009 C   0  0  0  0  0
    5.7512   -0.2923    0.5588 C   0  0  0  0  0
    5.6327   -4.7376    2.6708 N   0  0  0  0  0
   -4.6754   -1.0172    0.5656 N   0  0  0  0  0
   -2.7303   -1.2441   -0.7568 N   0  0  0  0  0
   -3.9198    1.6937    0.9799 N   0  0  0  0  0
    6.0026   -3.3591    2.3163 N   0  0  0  0  0
    2.2183    0.7127   -0.3099 N   0  0  0  0  0
    5.8427   -1.1389    1.7370 N   0  0  0  0  0
   -5.7295   -3.1528    0.5413 N   0  0  0  0  0
   -0.8280    1.3318    0.4371 N   0  0  0  0  0
    3.6394   -1.8041   -1.6757 O   0  0  0  0  0
    0.8764    0.6916   -2.2452 O   0  0  0  0  0
    4.2836    0.1821   -2.6101 O   0  0  0  0  0
   -1.9909    1.9787   -1.4952 O   0  0  0  0  0
   -3.4036    2.9929    1.0822 O   0  0  0  0  0
   -3.4408   -2.7588   -0.7991 S   0  0  0  0  0
    2.7905    2.3986    1.6546 S   0  0  0  0  0
  1  3  1  0  0  0
  2  4  1  0  0  0
  5 10  1  0  0  0
  5 21  1  0  0  0
  6 27  1  0  0  0
  6 34  1  0  0  0
  7 11  1  0  0  0
  7 25  1  0  0  0
  9 25  1  0  0  0
 10 12  1  0  0  0
 11 29  1  0  0  0
 12 28  1  0  0  0
 13  4  1  0  0  0
 13 26  1  0  0  0
 14  8  1  0  0  0
 14 35  1  0  0  0
 15 24  1  0  0  0
 15 26  1  0  0  0
 16  9  1  0  0  0
 16 17  1  0  0  0
 16 28  1  0  0  0
 17 25  1  0  0  0
 17 35  1  0  0  0
 18 33  1  0  0  0
 19  8  1  0  0  0
 19 26  1  0  0  0
 22 34  1  0  0  0
 23 33  1  0  0  0
 24 20  1  0  0  0
  1  2  2  0  0  0
  3 20  2  0  0  0
  4 24  2  0  0  0
  5 22  2  0  0  0
  6 21  2  0  0  0
  7  8  2  0  0  0
  9 30  2  0  0  0
 10 23  2  0  0  0
 11 31  2  0  0  0
 12 32  2  0  0  0
M  CHG  2  24   1  29  -1
M  END
> <rmsd>
0.186510578

$$$$
ZINC21986098


 35 39  0  0  0  0  0  0  0  0999 V2000
    8.3822   -4.0514    3.0807 C   0  0  0  0  0
    8.5579   -2.6993    2.8138 C   0  0  0  0  0
    7.1973   -4.6738    2.7107 C   0  0  0  0  0
    7.5372   -2.0156    2.1921 C   0  0  0  0  0
   -3.3896   -0.4706   -0.0917 C   0  0  0  0  0
   -4.4459   -2.3714   -0.0098 C   0  0  0  0  0
    3.4952    0.8451   -0.5738 C   0  0  0  0  0
    4.4187    1.0181    0.4013 C   0  0  0  0  0
    1.1113    1.4722   -1.1583 C   0  0  0  0  0
   -3.1554    0.9585    0.2486 C   0  0  0  0  0
    3.9028    0.2526   -1.9173 C   0  0  0  0  0
   -1.9687    1.6648   -0.3525 C   0  0  0  0  0
    7.4610   -0.5954    1.7729 C   0  0  0  0  0
    4.1262    1.7341    1.7199 C   0  0  0  0  0
    5.4815   -1.7290    1.1699 C   0  0  0  0  0
    0.4250    2.1488    0.0652 C   0  0  0  0  0
    1.6295    1.6162    0.8723 C   0  0  0  0  0
   -4.4737    3.5342    2.1355 C   0  0  0  0  0
    5.8430    0.5256    0.3218 C   0  0  0  0  0
    6.1710   -4.0561    2.0925 N   0  0  0  0  0
   -4.4744   -1.1396    0.4494 N   0  0  0  0  0
   -2.5487   -1.0909   -0.9190 N   0  0  0  0  0
   -3.9538    1.5905    1.0552 N   0  0  0  0  0
    6.4081   -2.6273    1.8374 N   0  0  0  0  0
    2.2151    1.2678   -0.4085 N   0  0  0  0  0
    6.0374   -0.3940    1.4308 N   0  0  0  0  0
   -5.3344   -3.3543    0.2810 N   0  0  0  0  0
   -0.8558    1.5514    0.4345 N   0  0  0  0  0
    3.8222   -1.0019   -1.9850 O   0  0  0  0  0
    0.8351    1.2685   -2.3170 O   0  0  0  0  0
    4.2646    1.0982   -2.7768 O   0  0  0  0  0
   -2.1170    2.2315   -1.4233 O   0  0  0  0  0
   -3.5531    2.9200    1.2470 O   0  0  0  0  0
   -3.1221   -2.6564   -1.0640 S   0  0  0  0  0
    2.6811    2.8487    1.6682 S   0  0  0  0  0
  1  3  1  0  0  0
  2  4  1  0  0  0
  5 10  1  0  0  0
  5 21  1  0  0  0
  6 27  1  0  0  0
  6 34  1  0  0  0
  7 11  1  0  0  0
  7 25  1  0  0  0
  9 25  1  0  0  0
 10 12  1  0  0  0
 11 29  1  0  0  0
 12 28  1  0  0  0
 13  4  1  0  0  0
 13 26  1  0  0  0
 14  8  1  0  0  0
 14 35  1  0  0  0
 15 24  1  0  0  0
 15 26  1  0  0  0
 16  9  1  0  0  0
 16 17  1  0  0  0
 16 28  1  0  0  0
 17 25  1  0  0  0
 17 35  1  0  0  0
 18 33  1  0  0  0
 19  8  1  0  0  0
 19 26  1  0  0  0
 22 34  1  0  0  0
 23 33  1  0  0  0
 24 20  1  0  0  0
  1  2  2  0  0  0
  3 20  2  0  0  0
  4 24  2  0  0  0
  5 22  2  0  0  0
  6 21  2  0  0  0
  7  8  2  0  0  0
  9 30  2  0  0  0
 10 23  2  0  0  0
 11 31  2  0  0  0
 12 32  2  0  0  0
M  CHG  2  24   1  29  -1
M  END
> <rmsd>
0.172188506

$$$$
ZINC21986101


 35 39  0  0  0  0  0  0  0  0999 V2000
   10.5361    0.5804    2.7385 C   0  0  0  0  0
    9.5455   -0.3695    2.9543 C   0  0  0  0  0
   10.2595    1.6918    1.9532 C   0  0  0  0  0
    8.3095   -0.1696    2.3816 C   0  0  0  0  0
   -3.1692   -0.4953   -0.1427 C   0  0  0  0  0
   -2.5690   -2.3523   -1.1054 C   0  0  0  0  0
    3.2549    0.4317   -0.1205 C   0  0  0  0  0
    3.8054   -0.0241    1.0300 C   0  0  0  0  0
    1.2393    1.7217   -0.9652 C   0  0  0  0  0
   -3.0391    0.9432    0.2133 C   0  0  0  0  0
    3.7933   -0.0470   -1.4638 C   0  0  0  0  0
   -1.8639    1.7211   -0.3179 C   0  0  0  0  0
    7.0926   -1.0157    2.4264 C   0  0  0  0  0
    3.2209    0.2619    2.4114 C   0  0  0  0  0
    6.7065    0.8953    1.0974 C   0  0  0  0  0
    0.4697    2.3425    0.2357 C   0  0  0  0  0
    1.7179    1.9722    1.0662 C   0  0  0  0  0
   -4.6112    3.4268    2.0278 C   0  0  0  0  0
    5.0434   -0.8842    1.0984 C   0  0  0  0  0
    9.0724    1.9320    1.3614 N   0  0  0  0  0
   -2.2174   -1.0948   -0.9502 N   0  0  0  0  0
   -4.2048   -1.1923    0.3244 N   0  0  0  0  0
   -3.9176    1.5228    0.9746 N   0  0  0  0  0
    8.0604    0.8981    1.6248 N   0  0  0  0  0
    2.1799    1.2613   -0.1122 N   0  0  0  0  0
    6.0284   -0.1504    1.8760 N   0  0  0  0  0
   -1.9028   -3.2854   -1.8304 N   0  0  0  0  0
   -0.7937    1.6683    0.5309 N   0  0  0  0  0
    3.2350   -1.0810   -1.9152 O   0  0  0  0  0
    1.0591    1.6051   -2.1546 O   0  0  0  0  0
    4.7225    0.6569   -1.9385 O   0  0  0  0  0
   -1.9845    2.2840   -1.3942 O   0  0  0  0  0
   -3.6074    2.8726    1.1917 O   0  0  0  0  0
   -4.0182   -2.7440   -0.2741 S   0  0  0  0  0
    1.4702    0.7783    2.4002 S   0  0  0  0  0
  1  3  1  0  0  0
  2  4  1  0  0  0
  5 10  1  0  0  0
  5 21  1  0  0  0
  6 27  1  0  0  0
  6 34  1  0  0  0
  7 11  1  0  0  0
  7 25  1  0  0  0
  9 25  1  0  0  0
 10 12  1  0  0  0
 11 29  1  0  0  0
 12 28  1  0  0  0
 13  4  1  0  0  0
 13 26  1  0  0  0
 14  8  1  0  0  0
 14 35  1  0  0  0
 15 24  1  0  0  0
 15 26  1  0  0  0
 16  9  1  0  0  0
 16 17  1  0  0  0
 16 28  1  0  0  0
 17 25  1  0  0  0
 17 35  1  0  0  0
 18 33  1  0  0  0
 19  8  1  0  0  0
 19 26  1  0  0  0
 22 34  1  0  0  0
 23 33  1  0  0  0
 24 20  1  0  0  0
  1  2  2  0  0  0
  3 20  2  0  0  0
  4 24  2  0  0  0
  5 22  2  0  0  0
  6 21  2  0  0  0
  7  8  2  0  0  0
  9 30  2  0  0  0
 10 23  2  0  0  0
 11 31  2  0  0  0
 12 32  2  0  0  0
M  CHG  2  24   1  29  -1
M  END
> <rmsd>
0.396940589

$$$$
ZINC21986101


 35 39  0  0  0  0  0  0  0  0999 V2000
   10.4469   -0.5681    2.3179 C   0  0  0  0  0
    9.3832   -1.4138    2.6070 C   0  0  0  0  0
   10.2428    0.5322    1.4957 C   0  0  0  0  0
    8.1498   -1.1239    2.0682 C   0  0  0  0  0
   -3.3975   -0.4927   -0.0529 C   0  0  0  0  0
   -3.0040   -2.4334   -0.9553 C   0  0  0  0  0
    3.0805   -0.1595   -0.2860 C   0  0  0  0  0
    3.6300   -0.6184    0.8637 C   0  0  0  0  0
    1.1596    1.2760   -1.1166 C   0  0  0  0  0
   -3.1247    0.9407    0.2370 C   0  0  0  0  0
    3.5228   -0.7381   -1.6251 C   0  0  0  0  0
   -1.9046    1.5859   -0.3660 C   0  0  0  0  0
    6.8640   -1.8522    2.1898 C   0  0  0  0  0
    3.1257   -0.2259    2.2506 C   0  0  0  0  0
    6.6029    0.0325    0.7944 C   0  0  0  0  0
    0.4946    2.0115    0.0819 C   0  0  0  0  0
    1.7344    1.5610    0.8851 C   0  0  0  0  0
   -4.3969    3.6276    1.9960 C   0  0  0  0  0
    4.7869   -1.5853    0.9270 C   0  0  0  0  0
    9.0610    0.8571    0.9345 N   0  0  0  0  0
   -2.5346   -1.2083   -0.8657 N   0  0  0  0  0
   -4.4737   -1.0727    0.4780 N   0  0  0  0  0
   -3.9181    1.6280    1.0021 N   0  0  0  0  0
    7.9702   -0.0683    1.2755 N   0  0  0  0  0
    2.0859    0.7650   -0.2769 N   0  0  0  0  0
    5.8625   -0.9151    1.6391 N   0  0  0  0  0
   -2.4525   -3.4514   -1.6620 N   0  0  0  0  0
   -0.8126    1.4683    0.4479 N   0  0  0  0  0
    2.8569   -1.7334   -2.0131 O   0  0  0  0  0
    0.9253    1.1297   -2.2933 O   0  0  0  0  0
    4.4934   -0.1417   -2.1602 O   0  0  0  0  0
   -2.0140    2.1147   -1.4606 O   0  0  0  0  0
   -3.4793    2.9510    1.1510 O   0  0  0  0  0
   -4.4507   -2.6573   -0.0599 S   0  0  0  0  0
    1.4297    0.4483    2.2762 S   0  0  0  0  0
  1  3  1  0  0  0
  2  4  1  0  0  0
  5 10  1  0  0  0
  5 21  1  0  0  0
  6 27  1  0  0  0
  6 34  1  0  0  0
  7 11  1  0  0  0
  7 25  1  0  0  0
  9 25  1  0  0  0
 10 12  1  0  0  0
 11 29  1  0  0  0
 12 28  1  0  0  0
 13  4  1  0  0  0
 13 26  1  0  0  0
 14  8  1  0  0  0
 14 35  1  0  0  0
 15 24  1  0  0  0
 15 26  1  0  0  0
 16  9  1  0  0  0
 16 17  1  0  0  0
 16 28  1  0  0  0
 17 25  1  0  0  0
 17 35  1  0  0  0
 18 33  1  0  0  0
 19  8  1  0  0  0
 19 26  1  0  0  0
 22 34  1  0  0  0
 23 33  1  0  0  0
 24 20  1  0  0  0
  1  2  2  0  0  0
  3 20  2  0  0  0
  4 24  2  0  0  0
  5 22  2  0  0  0
  6 21  2  0  0  0
  7  8  2  0  0  0
  9 30  2  0  0  0
 10 23  2  0  0  0
 11 31  2  0  0  0
 12 32  2  0  0  0
M  CHG  2  24   1  29  -1
M  END
> <rmsd>
0.0979604125

$$$$
ZINC04215267


 34 37  0  0  0  0  0  0  0  0999 V2000
    4.8520   -7.7955    1.0457 C   0  0  0  0  0
    4.3843   -6.4617    0.9721 C   0  0  0  0  0
    6.2207   -7.7149    1.1546 C   0  0  0  0  0
   -4.4873   -1.1675    0.4472 C   0  0  0  0  0
   -3.4007   -0.4796   -0.0508 C   0  0  0  0  0
    5.5007   -5.6610    1.0415 C   0  0  0  0  0
   -2.9980   -2.4345   -0.9596 C   0  0  0  0  0
    3.0779   -0.1615   -0.2854 C   0  0  0  0  0
    3.6267   -0.6222    0.8638 C   0  0  0  0  0
    1.1601    1.2791   -1.1146 C   0  0  0  0  0
   -3.1245    0.9530    0.2400 C   0  0  0  0  0
    5.6551   -4.2038    1.0149 C   0  0  0  0  0
    3.5185   -0.7402   -1.6250 C   0  0  0  0  0
   -1.9032    1.5957   -0.3631 C   0  0  0  0  0
    3.1236   -0.2295    2.2511 C   0  0  0  0  0
    0.4972    2.0154    0.0846 C   0  0  0  0  0
    1.7360    1.5616    0.8871 C   0  0  0  0  0
   -4.3901    3.6417    2.0009 C   0  0  0  0  0
    4.7813   -1.5918    0.9263 C   0  0  0  0  0
   -2.5454   -1.2046   -0.8574 N   0  0  0  0  0
   -3.9162    1.6418    1.0057 N   0  0  0  0  0
    2.0855    0.7654   -0.2755 N   0  0  0  0  0
   -2.3946   -3.4154   -1.6819 N   0  0  0  0  0
   -0.8113    1.4751    0.4505 N   0  0  0  0  0
    2.8502   -1.7336   -2.0134 O   0  0  0  0  0
    0.9253    1.1341   -2.2913 O   0  0  0  0  0
    6.7371   -3.6307    1.0877 O   0  0  0  0  0
    4.4904   -0.1457   -2.1599 O   0  0  0  0  0
   -2.0115    2.1254   -1.4572 O   0  0  0  0  0
    6.6241   -6.4172    1.1529 O   0  0  0  0  0
   -3.4741    2.9635    1.1552 O   0  0  0  0  0
   -4.4478   -2.7883   -0.1122 S   0  0  0  0  0
    1.4293    0.4486    2.2777 S   0  0  0  0  0
    4.1462   -3.2768    0.9408 S   0  0  0  0  0
  1  2  1  0  0  0
  3 30  1  0  0  0
  4 32  1  0  0  0
  5 11  1  0  0  0
  5 20  1  0  0  0
  6 12  1  0  0  0
  6 30  1  0  0  0
  7 23  1  0  0  0
  7 32  1  0  0  0
  8 13  1  0  0  0
  8 22  1  0  0  0
 10 22  1  0  0  0
 11 14  1  0  0  0
 12 34  1  0  0  0
 13 25  1  0  0  0
 14 24  1  0  0  0
 15  9  1  0  0  0
 15 33  1  0  0  0
 16 10  1  0  0  0
 16 17  1  0  0  0
 16 24  1  0  0  0
 17 22  1  0  0  0
 17 33  1  0  0  0
 18 31  1  0  0  0
 19  9  1  0  0  0
 19 34  1  0  0  0
 21 31  1  0  0  0
  1  3  2  0  0  0
  2  6  2  0  0  0
  4  5  2  0  0  0
  7 20  2  0  0  0
  8  9  2  0  0  0
 10 26  2  0  0  0
 11 21  2  0  0  0
 12 27  2  0  0  0
 13 28  2  0  0  0
 14 29  2  0  0  0
M  CHG  1  25  -1
M  END
> <rmsd>
0.102866709

$$$$
ZINC04215267


 34 37  0  0  0  0  0  0  0  0999 V2000
    5.6738   -7.0635    0.9769 C   0  0  0  0  0
    5.0885   -5.7755    0.9380 C   0  0  0  0  0
    7.0250   -6.8644    1.1397 C   0  0  0  0  0
   -4.2087   -1.2863    0.2902 C   0  0  0  0  0
   -3.1736   -0.4827   -0.1398 C   0  0  0  0  0
    6.1238   -4.8810    1.0801 C   0  0  0  0  0
   -2.5631   -2.3531   -1.1086 C   0  0  0  0  0
    3.2527    0.4285   -0.1205 C   0  0  0  0  0
    3.8026   -0.0289    1.0295 C   0  0  0  0  0
    1.2397    1.7239   -0.9636 C   0  0  0  0  0
   -3.0398    0.9555    0.2168 C   0  0  0  0  0
    6.1448   -3.4160    1.1162 C   0  0  0  0  0
    3.7892   -0.0509   -1.4643 C   0  0  0  0  0
   -1.8631    1.7307   -0.3149 C   0  0  0  0  0
    3.2195    0.2579    2.4113 C   0  0  0  0  0
    0.4724    2.3460    0.2378 C   0  0  0  0  0
    1.7200    1.9724    1.0676 C   0  0  0  0  0
   -4.6049    3.4422    2.0329 C   0  0  0  0  0
    5.0386   -0.8921    1.0970 C   0  0  0  0  0
   -2.2289   -1.0928   -0.9416 N   0  0  0  0  0
   -3.9165    1.5370    0.9787 N   0  0  0  0  0
    2.1797    1.2608   -0.1114 N   0  0  0  0  0
   -1.8485   -3.2441   -1.8456 N   0  0  0  0  0
   -0.7926    1.6748    0.5334 N   0  0  0  0  0
    3.2282   -1.0833   -1.9158 O   0  0  0  0  0
    1.0588    1.6081   -2.1531 O   0  0  0  0  0
    7.1666   -2.7511    1.2514 O   0  0  0  0  0
    4.7198    0.6509   -1.9391 O   0  0  0  0  0
   -1.9828    2.2941   -1.3909 O   0  0  0  0  0
    7.3075   -5.5367    1.2037 O   0  0  0  0  0
   -3.6028    2.8858    1.1960 O   0  0  0  0  0
   -4.0019   -2.8718   -0.3301 S   0  0  0  0  0
    1.4702    0.7786    2.4013 S   0  0  0  0  0
    4.5605   -2.6266    1.0221 S   0  0  0  0  0
  1  2  1  0  0  0
  3 30  1  0  0  0
  4 32  1  0  0  0
  5 11  1  0  0  0
  5 20  1  0  0  0
  6 12  1  0  0  0
  6 30  1  0  0  0
  7 23  1  0  0  0
  7 32  1  0  0  0
  8 13  1  0  0  0
  8 22  1  0  0  0
 10 22  1  0  0  0
 11 14  1  0  0  0
 12 34  1  0  0  0
 13 25  1  0  0  0
 14 24  1  0  0  0
 15  9  1  0  0  0
 15 33  1  0  0  0
 16 10  1  0  0  0
 16 17  1  0  0  0
 16 24  1  0  0  0
 17 22  1  0  0  0
 17 33  1  0  0  0
 18 31  1  0  0  0
 19  9  1  0  0  0
 19 34  1  0  0  0
 21 31  1  0  0  0
  1  3  2  0  0  0
  2  6  2  0  0  0
  4  5  2  0  0  0
  7 20  2  0  0  0
  8  9  2  0  0  0
 10 26  2  0  0  0
 11 21  2  0  0  0
 12 27  2  0  0  0
 13 28  2  0  0  0
 14 29  2  0  0  0
M  CHG  1  25  -1
M  END
> <rmsd>
0.402643889

$$$$
ZINC04215267


 34 37  0  0  0  0  0  0  0  0999 V2000
    4.8779   -7.7907    1.0039 C   0  0  0  0  0
    4.4081   -6.4572    0.9376 C   0  0  0  0  0
    6.2461   -7.7084    1.1180 C   0  0  0  0  0
   -2.5780   -1.2644   -0.8726 C   0  0  0  0  0
   -3.3840   -0.4821   -0.0723 C   0  0  0  0  0
    5.5228   -5.6551    1.0161 C   0  0  0  0  0
   -4.5211   -2.3539    0.0439 C   0  0  0  0  0
    3.0948   -0.1511   -0.2824 C   0  0  0  0  0
    3.6405   -0.6185    0.8656 C   0  0  0  0  0
    1.1773    1.2917   -1.1086 C   0  0  0  0  0
   -3.1113    0.9490    0.2290 C   0  0  0  0  0
    5.6748   -4.1975    0.9998 C   0  0  0  0  0
    3.5410   -0.7201   -1.6243 C   0  0  0  0  0
   -1.8890    1.5979   -0.3655 C   0  0  0  0  0
    3.1320   -0.2359    2.2537 C   0  0  0  0  0
    0.5091    2.0188    0.0932 C   0  0  0  0  0
    1.7459    1.5618    0.8969 C   0  0  0  0  0
   -4.3877    3.6237    2.0034 C   0  0  0  0  0
    4.7966   -1.5865    0.9256 C   0  0  0  0  0
   -4.4989   -1.1049    0.4538 N   0  0  0  0  0
   -3.9068    1.6312    0.9965 N   0  0  0  0  0
    2.1007    0.7740   -0.2697 N   0  0  0  0  0
   -5.4858   -3.2521    0.3763 N   0  0  0  0  0
   -0.7997    1.4737    0.4510 N   0  0  0  0  0
    2.8759   -1.7120   -2.0216 O   0  0  0  0  0
    0.9469    1.1541   -2.2871 O   0  0  0  0  0
    6.7555   -3.6229    1.0801 O   0  0  0  0  0
    4.5137   -0.1203   -2.1519 O   0  0  0  0  0
   -1.9946    2.1346   -1.4565 O   0  0  0  0  0
    6.6472   -6.4101    1.1264 O   0  0  0  0  0
   -3.4676    2.9528    1.1564 O   0  0  0  0  0
   -3.2320   -2.8464   -0.9761 S   0  0  0  0  0
    1.4364    0.4390    2.2790 S   0  0  0  0  0
    4.1645   -3.2726    0.9266 S   0  0  0  0  0
  1  2  1  0  0  0
  3 30  1  0  0  0
  4 32  1  0  0  0
  5 11  1  0  0  0
  5 20  1  0  0  0
  6 12  1  0  0  0
  6 30  1  0  0  0
  7 23  1  0  0  0
  7 32  1  0  0  0
  8 13  1  0  0  0
  8 22  1  0  0  0
 10 22  1  0  0  0
 11 14  1  0  0  0
 12 34  1  0  0  0
 13 25  1  0  0  0
 14 24  1  0  0  0
 15  9  1  0  0  0
 15 33  1  0  0  0
 16 10  1  0  0  0
 16 17  1  0  0  0
 16 24  1  0  0  0
 17 22  1  0  0  0
 17 33  1  0  0  0
 18 31  1  0  0  0
 19  9  1  0  0  0
 19 34  1  0  0  0
 21 31  1  0  0  0
  1  3  2  0  0  0
  2  6  2  0  0  0
  4  5  2  0  0  0
  7 20  2  0  0  0
  8  9  2  0  0  0
 10 26  2  0  0  0
 11 21  2  0  0  0
 12 27  2  0  0  0
 13 28  2  0  0  0
 14 29  2  0  0  0
M  CHG  1  25  -1
M  END
> <rmsd>
0.0605439208

$$$$
ZINC04215267


 34 37  0  0  0  0  0  0  0  0999 V2000
    5.6975   -7.0564    0.9448 C   0  0  0  0  0
    5.1103   -5.7691    0.9122 C   0  0  0  0  0
    7.0478   -6.8562    1.1136 C   0  0  0  0  0
   -2.2555   -1.1548   -0.9589 C   0  0  0  0  0
   -3.1565   -0.4824   -0.1600 C   0  0  0  0  0
    6.1437   -4.8739    1.0638 C   0  0  0  0  0
   -4.1210   -2.4521   -0.1593 C   0  0  0  0  0
    3.2683    0.4389   -0.1120 C   0  0  0  0  0
    3.8149   -0.0252    1.0369 C   0  0  0  0  0
    1.2562    1.7366   -0.9538 C   0  0  0  0  0
   -3.0262    0.9536    0.2065 C   0  0  0  0  0
    6.1622   -3.4091    1.1096 C   0  0  0  0  0
    3.8102   -0.0309   -1.4570 C   0  0  0  0  0
   -1.8489    1.7342   -0.3160 C   0  0  0  0  0
    3.2264    0.2516    2.4185 C   0  0  0  0  0
    0.4836    2.3496    0.2491 C   0  0  0  0  0
    1.7289    1.9725    1.0808 C   0  0  0  0  0
   -4.6017    3.4258    2.0333 C   0  0  0  0  0
    5.0520   -0.8869    1.1031 C   0  0  0  0  0
   -4.2271   -1.2245    0.2991 N   0  0  0  0  0
   -3.9066    1.5287    0.9691 N   0  0  0  0  0
    2.1939    1.2694   -0.1012 N   0  0  0  0  0
   -5.0102   -3.4467    0.1014 N   0  0  0  0  0
   -0.7813    1.6744    0.5358 N   0  0  0  0  0
    3.2526   -1.0612   -1.9173 O   0  0  0  0  0
    1.0797    1.6283   -2.1446 O   0  0  0  0  0
    7.1824   -2.7435    1.2528 O   0  0  0  0  0
    4.7415    0.6756   -1.9239 O   0  0  0  0  0
   -1.9657    2.3045   -1.3886 O   0  0  0  0  0
    7.3280   -5.5285    1.1873 O   0  0  0  0  0
   -3.5958    2.8765    1.1964 O   0  0  0  0  0
   -2.7581   -2.7835   -1.1481 S   0  0  0  0  0
    1.4764    0.7695    2.4057 S   0  0  0  0  0
    4.5770   -2.6216    1.0151 S   0  0  0  0  0
  1  2  1  0  0  0
  3 30  1  0  0  0
  4 32  1  0  0  0
  5 11  1  0  0  0
  5 20  1  0  0  0
  6 12  1  0  0  0
  6 30  1  0  0  0
  7 23  1  0  0  0
  7 32  1  0  0  0
  8 13  1  0  0  0
  8 22  1  0  0  0
 10 22  1  0  0  0
 11 14  1  0  0  0
 12 34  1  0  0  0
 13 25  1  0  0  0
 14 24  1  0  0  0
 15  9  1  0  0  0
 15 33  1  0  0  0
 16 10  1  0  0  0
 16 17  1  0  0  0
 16 24  1  0  0  0
 17 22  1  0  0  0
 17 33  1  0  0  0
 18 31  1  0  0  0
 19  9  1  0  0  0
 19 34  1  0  0  0
 21 31  1  0  0  0
  1  3  2  0  0  0
  2  6  2  0  0  0
  4  5  2  0  0  0
  7 20  2  0  0  0
  8  9  2  0  0  0
 10 26  2  0  0  0
 11 21  2  0  0  0
 12 27  2  0  0  0
 13 28  2  0  0  0
 14 29  2  0  0  0
M  CHG  1  25  -1
M  END
> <rmsd>
0.360028923

$$$$
ZINC04215267


 34 37  0  0  0  0  0  0  0  0999 V2000
   11.0297    0.6519    1.5794 C   0  0  0  0  0
    9.6201    0.7571    1.5094 C   0  0  0  0  0
   11.3166   -0.6913    1.5063 C   0  0  0  0  0
   -4.2082   -1.2865    0.2908 C   0  0  0  0  0
   -3.1732   -0.4829   -0.1392 C   0  0  0  0  0
    9.1460   -0.5293    1.3981 C   0  0  0  0  0
   -2.5626   -2.3534   -1.1079 C   0  0  0  0  0
    3.2531    0.4285   -0.1202 C   0  0  0  0  0
    3.8031   -0.0288    1.0298 C   0  0  0  0  0
    1.2401    1.7238   -0.9634 C   0  0  0  0  0
   -3.0394    0.9553    0.2172 C   0  0  0  0  0
    7.7831   -1.0573    1.2887 C   0  0  0  0  0
    3.7895   -0.0511   -1.4640 C   0  0  0  0  0
   -1.8627    1.7305   -0.3146 C   0  0  0  0  0
    3.2200    0.2581    2.4116 C   0  0  0  0  0
    0.4727    2.3460    0.2381 C   0  0  0  0  0
    1.7204    1.9724    1.0678 C   0  0  0  0  0
   -4.6046    3.4421    2.0332 C   0  0  0  0  0
    5.0391   -0.8920    1.0974 C   0  0  0  0  0
   -2.2284   -1.0931   -0.9411 N   0  0  0  0  0
   -3.9161    1.5368    0.9792 N   0  0  0  0  0
    2.1801    1.2608   -0.1111 N   0  0  0  0  0
   -1.8480   -3.2445   -1.8449 N   0  0  0  0  0
   -0.7922    1.6747    0.5338 N   0  0  0  0  0
    3.2286   -1.0835   -1.9154 O   0  0  0  0  0
    1.0592    1.6079   -2.1529 O   0  0  0  0  0
    7.5191   -2.2514    1.1951 O   0  0  0  0  0
    4.7202    0.6508   -1.9389 O   0  0  0  0  0
   -1.9825    2.2939   -1.3906 O   0  0  0  0  0
   10.1739   -1.4183    1.3954 O   0  0  0  0  0
   -3.6024    2.8856    1.1963 O   0  0  0  0  0
   -4.0014   -2.8721   -0.3293 S   0  0  0  0  0
    1.4707    0.7787    2.4016 S   0  0  0  0  0
    6.4954    0.1591    1.2257 S   0  0  0  0  0
  1  2  1  0  0  0
  3 30  1  0  0  0
  4 32  1  0  0  0
  5 11  1  0  0  0
  5 20  1  0  0  0
  6 12  1  0  0  0
  6 30  1  0  0  0
  7 23  1  0  0  0
  7 32  1  0  0  0
  8 13  1  0  0  0
  8 22  1  0  0  0
 10 22  1  0  0  0
 11 14  1  0  0  0
 12 34  1  0  0  0
 13 25  1  0  0  0
 14 24  1  0  0  0
 15  9  1  0  0  0
 15 33  1  0  0  0
 16 10  1  0  0  0
 16 17  1  0  0  0
 16 24  1  0  0  0
 17 22  1  0  0  0
 17 33  1  0  0  0
 18 31  1  0  0  0
 19  9  1  0  0  0
 19 34  1  0  0  0
 21 31  1  0  0  0
  1  3  2  0  0  0
  2  6  2  0  0  0
  4  5  2  0  0  0
  7 20  2  0  0  0
  8  9  2  0  0  0
 10 26  2  0  0  0
 11 21  2  0  0  0
 12 27  2  0  0  0
 13 28  2  0  0  0
 14 29  2  0  0  0
M  CHG  1  25  -1
M  END
> <rmsd>
0.402635455

$$$$
ZINC04215267


 34 37  0  0  0  0  0  0  0  0999 V2000
   10.9011   -0.5861    1.1422 C   0  0  0  0  0
    9.5051   -0.3549    1.1150 C   0  0  0  0  0
   11.0627   -1.9518    1.1163 C   0  0  0  0  0
   -4.4869   -1.1678    0.4478 C   0  0  0  0  0
   -3.4003   -0.4799   -0.0503 C   0  0  0  0  0
    8.9131   -1.5958    1.0741 C   0  0  0  0  0
   -2.9975   -2.4349   -0.9589 C   0  0  0  0  0
    3.0783   -0.1616   -0.2851 C   0  0  0  0  0
    3.6271   -0.6222    0.8642 C   0  0  0  0  0
    1.1604    1.2790   -1.1143 C   0  0  0  0  0
   -3.1241    0.9528    0.2404 C   0  0  0  0  0
    7.5050   -2.0004    1.0328 C   0  0  0  0  0
    3.5189   -0.7404   -1.6246 C   0  0  0  0  0
   -1.9028    1.5955   -0.3627 C   0  0  0  0  0
    3.1241   -0.2293    2.2514 C   0  0  0  0  0
    0.4976    2.0153    0.0849 C   0  0  0  0  0
    1.7364    1.5616    0.8874 C   0  0  0  0  0
   -4.3897    3.6416    2.0012 C   0  0  0  0  0
    4.7818   -1.5917    0.9267 C   0  0  0  0  0
   -2.5449   -1.2049   -0.8568 N   0  0  0  0  0
   -3.9157    1.6416    1.0061 N   0  0  0  0  0
    2.0859    0.7653   -0.2752 N   0  0  0  0  0
   -2.3941   -3.4158   -1.6812 N   0  0  0  0  0
   -0.8109    1.4749    0.4509 N   0  0  0  0  0
    2.8506   -1.7338   -2.0129 O   0  0  0  0  0
    0.9256    1.1338   -2.2911 O   0  0  0  0  0
    7.1309   -3.1680    0.9986 O   0  0  0  0  0
    4.4908   -0.1458   -2.1596 O   0  0  0  0  0
   -2.0112    2.1251   -1.4569 O   0  0  0  0  0
    9.8557   -2.5747    1.0746 O   0  0  0  0  0
   -3.4737    2.9634    1.1555 O   0  0  0  0  0
   -4.4472   -2.7886   -0.1114 S   0  0  0  0  0
    1.4298    0.4487    2.2780 S   0  0  0  0  0
    6.3309   -0.6744    0.9617 S   0  0  0  0  0
  1  2  1  0  0  0
  3 30  1  0  0  0
  4 32  1  0  0  0
  5 11  1  0  0  0
  5 20  1  0  0  0
  6 12  1  0  0  0
  6 30  1  0  0  0
  7 23  1  0  0  0
  7 32  1  0  0  0
  8 13  1  0  0  0
  8 22  1  0  0  0
 10 22  1  0  0  0
 11 14  1  0  0  0
 12 34  1  0  0  0
 13 25  1  0  0  0
 14 24  1  0  0  0
 15  9  1  0  0  0
 15 33  1  0  0  0
 16 10  1  0  0  0
 16 17  1  0  0  0
 16 24  1  0  0  0
 17 22  1  0  0  0
 17 33  1  0  0  0
 18 31  1  0  0  0
 19  9  1  0  0  0
 19 34  1  0  0  0
 21 31  1  0  0  0
  1  3  2  0  0  0
  2  6  2  0  0  0
  4  5  2  0  0  0
  7 20  2  0  0  0
  8  9  2  0  0  0
 10 26  2  0  0  0
 11 21  2  0  0  0
 12 27  2  0  0  0
 13 28  2  0  0  0
 14 29  2  0  0  0
M  CHG  1  25  -1
M  END
> <rmsd>
0.102791503

$$$$
ZINC04215267


 34 37  0  0  0  0  0  0  0  0999 V2000
   10.9136   -0.5718    1.1690 C   0  0  0  0  0
    9.5173   -0.3429    1.1385 C   0  0  0  0  0
   11.0776   -1.9370    1.1344 C   0  0  0  0  0
   -2.5778   -1.2644   -0.8727 C   0  0  0  0  0
   -3.3838   -0.4821   -0.0724 C   0  0  0  0  0
    8.9276   -1.5844    1.0872 C   0  0  0  0  0
   -4.5209   -2.3539    0.0438 C   0  0  0  0  0
    3.0950   -0.1511   -0.2825 C   0  0  0  0  0
    3.6407   -0.6185    0.8655 C   0  0  0  0  0
    1.1775    1.2917   -1.1087 C   0  0  0  0  0
   -3.1111    0.9490    0.2289 C   0  0  0  0  0
    7.5203   -1.9912    1.0383 C   0  0  0  0  0
    3.5412   -0.7201   -1.6244 C   0  0  0  0  0
   -1.8888    1.5979   -0.3657 C   0  0  0  0  0
    3.1322   -0.2359    2.2536 C   0  0  0  0  0
    0.5093    2.0188    0.0931 C   0  0  0  0  0
    1.7461    1.5618    0.8968 C   0  0  0  0  0
   -4.3875    3.6237    2.0033 C   0  0  0  0  0
    4.7968   -1.5865    0.9255 C   0  0  0  0  0
   -4.4987   -1.1049    0.4537 N   0  0  0  0  0
   -3.9066    1.6312    0.9964 N   0  0  0  0  0
    2.1009    0.7740   -0.2698 N   0  0  0  0  0
   -5.4856   -3.2522    0.3762 N   0  0  0  0  0
   -0.7995    1.4737    0.4509 N   0  0  0  0  0
    2.8761   -1.7121   -2.0217 O   0  0  0  0  0
    0.9471    1.1541   -2.2872 O   0  0  0  0  0
    7.1484   -3.1592    0.9949 O   0  0  0  0  0
    4.5139   -0.1203   -2.1520 O   0  0  0  0  0
   -1.9944    2.1346   -1.4566 O   0  0  0  0  0
    9.8719   -2.5617    1.0843 O   0  0  0  0  0
   -3.4674    2.9527    1.1563 O   0  0  0  0  0
   -3.2318   -2.8464   -0.9762 S   0  0  0  0  0
    1.4366    0.4390    2.2788 S   0  0  0  0  0
    6.3441   -0.6668    0.9720 S   0  0  0  0  0
  1  2  1  0  0  0
  3 30  1  0  0  0
  4 32  1  0  0  0
  5 11  1  0  0  0
  5 20  1  0  0  0
  6 12  1  0  0  0
  6 30  1  0  0  0
  7 23  1  0  0  0
  7 32  1  0  0  0
  8 13  1  0  0  0
  8 22  1  0  0  0
 10 22  1  0  0  0
 11 14  1  0  0  0
 12 34  1  0  0  0
 13 25  1  0  0  0
 14 24  1  0  0  0
 15  9  1  0  0  0
 15 33  1  0  0  0
 16 10  1  0  0  0
 16 17  1  0  0  0
 16 24  1  0  0  0
 17 22  1  0  0  0
 17 33  1  0  0  0
 18 31  1  0  0  0
 19  9  1  0  0  0
 19 34  1  0  0  0
 21 31  1  0  0  0
  1  3  2  0  0  0
  2  6  2  0  0  0
  4  5  2  0  0  0
  7 20  2  0  0  0
  8  9  2  0  0  0
 10 26  2  0  0  0
 11 21  2  0  0  0
 12 27  2  0  0  0
 13 28  2  0  0  0
 14 29  2  0  0  0
M  CHG  1  25  -1
M  END
> <rmsd>
0.0605437905

$$$$
ZINC04215267


 34 37  0  0  0  0  0  0  0  0999 V2000
   11.0386    0.6631    1.6167 C   0  0  0  0  0
    9.6291    0.7665    1.5423 C   0  0  0  0  0
   11.3279   -0.6792    1.5356 C   0  0  0  0  0
   -2.2553   -1.1547   -0.9590 C   0  0  0  0  0
   -3.1563   -0.4824   -0.1601 C   0  0  0  0  0
    9.1575   -0.5199    1.4208 C   0  0  0  0  0
   -4.1208   -2.4521   -0.1594 C   0  0  0  0  0
    3.2685    0.4389   -0.1122 C   0  0  0  0  0
    3.8151   -0.0252    1.0368 C   0  0  0  0  0
    1.2564    1.7366   -0.9539 C   0  0  0  0  0
   -3.0260    0.9536    0.2064 C   0  0  0  0  0
    7.7958   -1.0492    1.3030 C   0  0  0  0  0
    3.8104   -0.0309   -1.4571 C   0  0  0  0  0
   -1.8487    1.7342   -0.3161 C   0  0  0  0  0
    3.2266    0.2516    2.4184 C   0  0  0  0  0
    0.4838    2.3496    0.2490 C   0  0  0  0  0
    1.7291    1.9725    1.0806 C   0  0  0  0  0
   -4.6015    3.4258    2.0332 C   0  0  0  0  0
    5.0522   -0.8869    1.1030 C   0  0  0  0  0
   -4.2269   -1.2245    0.2990 N   0  0  0  0  0
   -3.9063    1.5287    0.9690 N   0  0  0  0  0
    2.1941    1.2694   -0.1013 N   0  0  0  0  0
   -5.0100   -3.4467    0.1013 N   0  0  0  0  0
   -0.7811    1.6744    0.5357 N   0  0  0  0  0
    3.2528   -1.0612   -1.9174 O   0  0  0  0  0
    1.0799    1.6283   -2.1447 O   0  0  0  0  0
    7.5339   -2.2431    1.2005 O   0  0  0  0  0
    4.7417    0.6756   -1.9240 O   0  0  0  0  0
   -1.9655    2.3045   -1.3887 O   0  0  0  0  0
   10.1867   -1.4072    1.4159 O   0  0  0  0  0
   -3.5956    2.8765    1.1963 O   0  0  0  0  0
   -2.7579   -2.7835   -1.1482 S   0  0  0  0  0
    1.4766    0.7695    2.4056 S   0  0  0  0  0
    6.5064    0.1656    1.2436 S   0  0  0  0  0
  1  2  1  0  0  0
  3 30  1  0  0  0
  4 32  1  0  0  0
  5 11  1  0  0  0
  5 20  1  0  0  0
  6 12  1  0  0  0
  6 30  1  0  0  0
  7 23  1  0  0  0
  7 32  1  0  0  0
  8 13  1  0  0  0
  8 22  1  0  0  0
 10 22  1  0  0  0
 11 14  1  0  0  0
 12 34  1  0  0  0
 13 25  1  0  0  0
 14 24  1  0  0  0
 15  9  1  0  0  0
 15 33  1  0  0  0
 16 10  1  0  0  0
 16 17  1  0  0  0
 16 24  1  0  0  0
 17 22  1  0  0  0
 17 33  1  0  0  0
 18 31  1  0  0  0
 19  9  1  0  0  0
 19 34  1  0  0  0
 21 31  1  0  0  0
  1  3  2  0  0  0
  2  6  2  0  0  0
  4  5  2  0  0  0
  7 20  2  0  0  0
  8  9  2  0  0  0
 10 26  2  0  0  0
 11 21  2  0  0  0
 12 27  2  0  0  0
 13 28  2  0  0  0
 14 29  2  0  0  0
M  CHG  1  25  -1
M  END
> <rmsd>
0.360028744

$$$$
ZINC03914240


 36 40  0  0  0  0  0  0  0  0999 V2000
    6.2791   -1.4122    4.5117 C   0  0  0  0  0
    7.0730   -0.2876    4.7074 C   0  0  0  0  0
    5.6161   -1.5579    3.3043 C   0  0  0  0  0
   -4.2088   -1.2863    0.2906 C   0  0  0  0  0
    7.1986    0.6689    3.6959 C   0  0  0  0  0
   -3.1736   -0.4828   -0.1395 C   0  0  0  0  0
    6.4903    0.4783    2.5015 C   0  0  0  0  0
   -2.5633   -2.3535   -1.1081 C   0  0  0  0  0
    3.2527    0.4279   -0.1201 C   0  0  0  0  0
    3.8026   -0.0295    1.0300 C   0  0  0  0  0
    1.2399    1.7233   -0.9634 C   0  0  0  0  0
   -3.0397    0.9553    0.2170 C   0  0  0  0  0
    3.7893   -0.0517   -1.4638 C   0  0  0  0  0
   -1.8629    1.7304   -0.3146 C   0  0  0  0  0
    8.0270    1.9059    3.9212 C   0  0  0  0  0
    6.5738    1.4281    1.3469 C   0  0  0  0  0
    3.2195    0.2574    2.4118 C   0  0  0  0  0
    8.3559    2.6501    2.6254 C   0  0  0  0  0
    7.1114    2.7991    1.7544 C   0  0  0  0  0
    0.4726    2.3456    0.2381 C   0  0  0  0  0
    1.7202    1.9719    1.0678 C   0  0  0  0  0
   -4.6047    3.4423    2.0329 C   0  0  0  0  0
    5.0212   -0.8808    1.0967 C   0  0  0  0  0
   -2.2289   -1.0931   -0.9412 N   0  0  0  0  0
   -3.9163    1.5369    0.9789 N   0  0  0  0  0
    5.7395   -0.6271    2.3495 N   0  0  0  0  0
    2.1799    1.2603   -0.1110 N   0  0  0  0  0
   -1.8486   -3.2445   -1.8451 N   0  0  0  0  0
   -0.7924    1.6745    0.5337 N   0  0  0  0  0
    3.2282   -1.0841   -1.9152 O   0  0  0  0  0
    1.0589    1.6075   -2.1528 O   0  0  0  0  0
    4.7200    0.6500   -1.9388 O   0  0  0  0  0
   -1.9826    2.2938   -1.3907 O   0  0  0  0  0
   -3.6026    2.8857    1.1962 O   0  0  0  0  0
   -4.0021   -2.8719   -0.3296 S   0  0  0  0  0
    1.4702    0.7782    2.4016 S   0  0  0  0  0
  1  2  1  0  0  0
  3 26  1  0  0  0
  4 35  1  0  0  0
  5  7  1  0  0  0
  6 12  1  0  0  0
  6 24  1  0  0  0
  8 28  1  0  0  0
  8 35  1  0  0  0
  9 13  1  0  0  0
  9 27  1  0  0  0
 11 27  1  0  0  0
 12 14  1  0  0  0
 13 30  1  0  0  0
 14 29  1  0  0  0
 15  5  1  0  0  0
 15 18  1  0  0  0
 16  7  1  0  0  0
 16 19  1  0  0  0
 17 10  1  0  0  0
 17 36  1  0  0  0
 18 19  1  0  0  0
 20 11  1  0  0  0
 20 21  1  0  0  0
 20 29  1  0  0  0
 21 27  1  0  0  0
 21 36  1  0  0  0
 22 34  1  0  0  0
 23 10  1  0  0  0
 23 26  1  0  0  0
 25 34  1  0  0  0
  1  3  2  0  0  0
  2  5  2  0  0  0
  4  6  2  0  0  0
  7 26  2  0  0  0
  8 24  2  0  0  0
  9 10  2  0  0  0
 11 31  2  0  0  0
 12 25  2  0  0  0
 13 32  2  0  0  0
 14 33  2  0  0  0
M  CHG  2  26   1  30  -1
M  END
> <rmsd>
0.402558744

$$$$
ZINC03914240


 36 40  0  0  0  0  0  0  0  0999 V2000
    6.0965   -2.0900    4.3154 C   0  0  0  0  0
    6.9954   -1.0362    4.4367 C   0  0  0  0  0
    5.3784   -2.2212    3.1382 C   0  0  0  0  0
   -4.4874   -1.1676    0.4476 C   0  0  0  0  0
    7.1690   -0.1354    3.3821 C   0  0  0  0  0
   -3.4007   -0.4797   -0.0505 C   0  0  0  0  0
    6.4023   -0.3066    2.2214 C   0  0  0  0  0
   -2.9982   -2.4348   -0.9594 C   0  0  0  0  0
    3.0779   -0.1620   -0.2856 C   0  0  0  0  0
    3.6267   -0.6228    0.8636 C   0  0  0  0  0
    1.1601    1.2787   -1.1147 C   0  0  0  0  0
   -3.1243    0.9528    0.2402 C   0  0  0  0  0
    3.5184   -0.7408   -1.6251 C   0  0  0  0  0
   -1.9030    1.5955   -0.3629 C   0  0  0  0  0
    8.1134    1.0284    3.5271 C   0  0  0  0  0
    6.5280    0.5859    1.0255 C   0  0  0  0  0
    3.1239   -0.2299    2.2510 C   0  0  0  0  0
    8.4595    1.6882    2.1907 C   0  0  0  0  0
    7.2020    1.9166    1.3566 C   0  0  0  0  0
    0.4974    2.0150    0.0846 C   0  0  0  0  0
    1.7363    1.5611    0.8870 C   0  0  0  0  0
   -4.3896    3.6416    2.0012 C   0  0  0  0  0
    4.7652   -1.5790    0.9253 C   0  0  0  0  0
   -2.5455   -1.2048   -0.8571 N   0  0  0  0  0
   -3.9159    1.6416    1.0060 N   0  0  0  0  0
    5.5496   -1.3436    2.1414 N   0  0  0  0  0
    2.0856    0.7650   -0.2756 N   0  0  0  0  0
   -2.3948   -3.4156   -1.6818 N   0  0  0  0  0
   -0.8111    1.4747    0.4506 N   0  0  0  0  0
    2.8500   -1.7342   -2.0135 O   0  0  0  0  0
    0.9252    1.1337   -2.2914 O   0  0  0  0  0
    4.4903   -0.1463   -2.1602 O   0  0  0  0  0
   -2.0114    2.1251   -1.4571 O   0  0  0  0  0
   -3.4738    2.9634    1.1555 O   0  0  0  0  0
   -4.4479   -2.7884   -0.1118 S   0  0  0  0  0
    1.4295    0.4482    2.2776 S   0  0  0  0  0
  1  2  1  0  0  0
  3 26  1  0  0  0
  4 35  1  0  0  0
  5  7  1  0  0  0
  6 12  1  0  0  0
  6 24  1  0  0  0
  8 28  1  0  0  0
  8 35  1  0  0  0
  9 13  1  0  0  0
  9 27  1  0  0  0
 11 27  1  0  0  0
 12 14  1  0  0  0
 13 30  1  0  0  0
 14 29  1  0  0  0
 15  5  1  0  0  0
 15 18  1  0  0  0
 16  7  1  0  0  0
 16 19  1  0  0  0
 17 10  1  0  0  0
 17 36  1  0  0  0
 18 19  1  0  0  0
 20 11  1  0  0  0
 20 21  1  0  0  0
 20 29  1  0  0  0
 21 27  1  0  0  0
 21 36  1  0  0  0
 22 34  1  0  0  0
 23 10  1  0  0  0
 23 26  1  0  0  0
 25 34  1  0  0  0
  1  3  2  0  0  0
  2  5  2  0  0  0
  4  6  2  0  0  0
  7 26  2  0  0  0
  8 24  2  0  0  0
  9 10  2  0  0  0
 11 31  2  0  0  0
 12 25  2  0  0  0
 13 32  2  0  0  0
 14 33  2  0  0  0
M  CHG  2  26   1  30  -1
M  END
> <rmsd>
0.10277088

$$$$
ZINC03914240


 36 40  0  0  0  0  0  0  0  0999 V2000
    6.0995   -2.1066    4.3151 C   0  0  0  0  0
    6.9962   -1.0521    4.4468 C   0  0  0  0  0
    5.3859   -2.2309    3.1345 C   0  0  0  0  0
   -2.5790   -1.2646   -0.8736 C   0  0  0  0  0
    7.1720   -0.1438    3.3991 C   0  0  0  0  0
   -3.3849   -0.4823   -0.0732 C   0  0  0  0  0
    6.4096   -0.3083    2.2344 C   0  0  0  0  0
   -4.5223   -2.3539    0.0426 C   0  0  0  0  0
    3.0939   -0.1520   -0.2831 C   0  0  0  0  0
    3.6395   -0.6198    0.8648 C   0  0  0  0  0
    1.1766    1.2911   -1.1091 C   0  0  0  0  0
   -3.1121    0.9487    0.2284 C   0  0  0  0  0
    3.5401   -0.7208   -1.6251 C   0  0  0  0  0
   -1.8897    1.5976   -0.3659 C   0  0  0  0  0
    8.1139    1.0205    3.5554 C   0  0  0  0  0
    6.5381    0.5926    1.0452 C   0  0  0  0  0
    3.1311   -0.2374    2.2530 C   0  0  0  0  0
    8.4636    1.6901    2.2248 C   0  0  0  0  0
    7.2087    1.9222    1.3878 C   0  0  0  0  0
    0.5084    2.0180    0.0930 C   0  0  0  0  0
    1.7453    1.5607    0.8965 C   0  0  0  0  0
   -4.3882    3.6232    2.0034 C   0  0  0  0  0
    4.7794   -1.5744    0.9239 C   0  0  0  0  0
   -4.5000   -1.1052    0.4528 N   0  0  0  0  0
   -3.9075    1.6308    0.9961 N   0  0  0  0  0
    5.5591   -1.3461    2.1444 N   0  0  0  0  0
    2.1000    0.7732   -0.2702 N   0  0  0  0  0
   -5.4871   -3.2522    0.3748 N   0  0  0  0  0
   -0.8005    1.4731    0.4506 N   0  0  0  0  0
    2.8748   -1.7126   -2.0226 O   0  0  0  0  0
    0.9460    1.1539   -2.2876 O   0  0  0  0  0
    4.5128   -0.1210   -2.1527 O   0  0  0  0  0
   -1.9952    2.1346   -1.4568 O   0  0  0  0  0
   -3.4682    2.9523    1.1563 O   0  0  0  0  0
   -3.2332   -2.8465   -0.9775 S   0  0  0  0  0
    1.4354    0.4377    2.2784 S   0  0  0  0  0
  1  2  1  0  0  0
  3 26  1  0  0  0
  4 35  1  0  0  0
  5  7  1  0  0  0
  6 12  1  0  0  0
  6 24  1  0  0  0
  8 28  1  0  0  0
  8 35  1  0  0  0
  9 13  1  0  0  0
  9 27  1  0  0  0
 11 27  1  0  0  0
 12 14  1  0  0  0
 13 30  1  0  0  0
 14 29  1  0  0  0
 15  5  1  0  0  0
 15 18  1  0  0  0
 16  7  1  0  0  0
 16 19  1  0  0  0
 17 10  1  0  0  0
 17 36  1  0  0  0
 18 19  1  0  0  0
 20 11  1  0  0  0
 20 21  1  0  0  0
 20 29  1  0  0  0
 21 27  1  0  0  0
 21 36  1  0  0  0
 22 34  1  0  0  0
 23 10  1  0  0  0
 23 26  1  0  0  0
 25 34  1  0  0  0
  1  3  2  0  0  0
  2  5  2  0  0  0
  4  6  2  0  0  0
  7 26  2  0  0  0
  8 24  2  0  0  0
  9 10  2  0  0  0
 11 31  2  0  0  0
 12 25  2  0  0  0
 13 32  2  0  0  0
 14 33  2  0  0  0
M  CHG  2  26   1  30  -1
M  END
> <rmsd>
0.060321115

$$$$
ZINC03914240


 36 40  0  0  0  0  0  0  0  0999 V2000
    6.2799   -1.4292    4.5181 C   0  0  0  0  0
    7.0714   -0.3048    4.7243 C   0  0  0  0  0
    5.6214   -1.5677    3.3073 C   0  0  0  0  0
   -2.2564   -1.1550   -0.9597 C   0  0  0  0  0
    7.1991    0.6588    3.7198 C   0  0  0  0  0
   -3.1574   -0.4826   -0.1609 C   0  0  0  0  0
    6.4954    0.4752    2.5216 C   0  0  0  0  0
   -4.1222   -2.4522   -0.1605 C   0  0  0  0  0
    3.2674    0.4378   -0.1120 C   0  0  0  0  0
    3.8139   -0.0267    1.0369 C   0  0  0  0  0
    1.2557    1.7358   -0.9538 C   0  0  0  0  0
   -3.0270    0.9532    0.2058 C   0  0  0  0  0
    3.8096   -0.0319   -1.4570 C   0  0  0  0  0
   -1.8494    1.7337   -0.3163 C   0  0  0  0  0
    8.0247    1.8955    3.9565 C   0  0  0  0  0
    6.5816    1.4330    1.3737 C   0  0  0  0  0
    3.2254    0.2500    2.4185 C   0  0  0  0  0
    8.3572    2.6489    2.6669 C   0  0  0  0  0
    7.1157    2.8020    1.7925 C   0  0  0  0  0
    0.4831    2.3487    0.2491 C   0  0  0  0  0
    1.7283    1.9713    1.0808 C   0  0  0  0  0
   -4.6023    3.4254    2.0329 C   0  0  0  0  0
    5.0336   -0.8766    1.1023 C   0  0  0  0  0
   -4.2282   -1.2247    0.2980 N   0  0  0  0  0
   -3.9073    1.5283    0.9685 N   0  0  0  0  0
    5.7469   -0.6303    2.3594 N   0  0  0  0  0
    2.1933    1.2684   -0.1012 N   0  0  0  0  0
   -5.0116   -3.4468    0.0999 N   0  0  0  0  0
   -0.7820    1.6737    0.5355 N   0  0  0  0  0
    3.2517   -1.0621   -1.9175 O   0  0  0  0  0
    1.0792    1.6278   -2.1447 O   0  0  0  0  0
    4.7409    0.6744   -1.9238 O   0  0  0  0  0
   -1.9661    2.3042   -1.3889 O   0  0  0  0  0
   -3.5964    2.8762    1.1960 O   0  0  0  0  0
   -2.7593   -2.7836   -1.1492 S   0  0  0  0  0
    1.4752    0.7682    2.4055 S   0  0  0  0  0
  1  2  1  0  0  0
  3 26  1  0  0  0
  4 35  1  0  0  0
  5  7  1  0  0  0
  6 12  1  0  0  0
  6 24  1  0  0  0
  8 28  1  0  0  0
  8 35  1  0  0  0
  9 13  1  0  0  0
  9 27  1  0  0  0
 11 27  1  0  0  0
 12 14  1  0  0  0
 13 30  1  0  0  0
 14 29  1  0  0  0
 15  5  1  0  0  0
 15 18  1  0  0  0
 16  7  1  0  0  0
 16 19  1  0  0  0
 17 10  1  0  0  0
 17 36  1  0  0  0
 18 19  1  0  0  0
 20 11  1  0  0  0
 20 21  1  0  0  0
 20 29  1  0  0  0
 21 27  1  0  0  0
 21 36  1  0  0  0
 22 34  1  0  0  0
 23 10  1  0  0  0
 23 26  1  0  0  0
 25 34  1  0  0  0
  1  3  2  0  0  0
  2  5  2  0  0  0
  4  6  2  0  0  0
  7 26  2  0  0  0
  8 24  2  0  0  0
  9 10  2  0  0  0
 11 31  2  0  0  0
 12 25  2  0  0  0
 13 32  2  0  0  0
 14 33  2  0  0  0
M  CHG  2  26   1  30  -1
M  END
> <rmsd>
0.359694958

$$$$
ZINC03914240


 36 40  0  0  0  0  0  0  0  0999 V2000
    2.8843   -4.6455    1.6912 C   0  0  0  0  0
    3.5370   -5.1110    2.8274 C   0  0  0  0  0
    3.3236   -3.4701    1.1048 C   0  0  0  0  0
   -4.4873   -1.1676    0.4475 C   0  0  0  0  0
    4.6193   -4.4022    3.3563 C   0  0  0  0  0
   -3.4006   -0.4797   -0.0505 C   0  0  0  0  0
    5.0087   -3.2093    2.7318 C   0  0  0  0  0
   -2.9981   -2.4347   -0.9595 C   0  0  0  0  0
    3.0780   -0.1621   -0.2852 C   0  0  0  0  0
    3.6268   -0.6230    0.8640 C   0  0  0  0  0
    1.1603    1.2787   -1.1143 C   0  0  0  0  0
   -3.1242    0.9527    0.2404 C   0  0  0  0  0
    3.5186   -0.7408   -1.6248 C   0  0  0  0  0
   -1.9028    1.5954   -0.3626 C   0  0  0  0  0
    5.3019   -4.8845    4.6087 C   0  0  0  0  0
    6.1688   -2.3873    3.2018 C   0  0  0  0  0
    3.1239   -0.2303    2.2513 C   0  0  0  0  0
    6.6621   -4.2236    4.8413 C   0  0  0  0  0
    6.5734   -2.7136    4.6387 C   0  0  0  0  0
    0.4976    2.0149    0.0851 C   0  0  0  0  0
    1.7364    1.5609    0.8874 C   0  0  0  0  0
   -4.3895    3.6415    2.0016 C   0  0  0  0  0
    4.7652   -1.5793    0.9256 C   0  0  0  0  0
   -2.5454   -1.2048   -0.8571 N   0  0  0  0  0
   -3.9158    1.6415    1.0062 N   0  0  0  0  0
    4.3559   -2.7981    1.6302 N   0  0  0  0  0
    2.0857    0.7648   -0.2752 N   0  0  0  0  0
   -2.3947   -3.4155   -1.6819 N   0  0  0  0  0
   -0.8110    1.4746    0.4509 N   0  0  0  0  0
    2.8502   -1.7342   -2.0132 O   0  0  0  0  0
    0.9254    1.1338   -2.2910 O   0  0  0  0  0
    4.4905   -0.1463   -2.1598 O   0  0  0  0  0
   -2.0112    2.1252   -1.4568 O   0  0  0  0  0
   -3.4737    2.9633    1.1558 O   0  0  0  0  0
   -4.4479   -2.7884   -0.1120 S   0  0  0  0  0
    1.4295    0.4479    2.2780 S   0  0  0  0  0
  1  2  1  0  0  0
  3 26  1  0  0  0
  4 35  1  0  0  0
  5  7  1  0  0  0
  6 12  1  0  0  0
  6 24  1  0  0  0
  8 28  1  0  0  0
  8 35  1  0  0  0
  9 13  1  0  0  0
  9 27  1  0  0  0
 11 27  1  0  0  0
 12 14  1  0  0  0
 13 30  1  0  0  0
 14 29  1  0  0  0
 15  5  1  0  0  0
 15 18  1  0  0  0
 16  7  1  0  0  0
 16 19  1  0  0  0
 17 10  1  0  0  0
 17 36  1  0  0  0
 18 19  1  0  0  0
 20 11  1  0  0  0
 20 21  1  0  0  0
 20 29  1  0  0  0
 21 27  1  0  0  0
 21 36  1  0  0  0
 22 34  1  0  0  0
 23 10  1  0  0  0
 23 26  1  0  0  0
 25 34  1  0  0  0
  1  3  2  0  0  0
  2  5  2  0  0  0
  4  6  2  0  0  0
  7 26  2  0  0  0
  8 24  2  0  0  0
  9 10  2  0  0  0
 11 31  2  0  0  0
 12 25  2  0  0  0
 13 32  2  0  0  0
 14 33  2  0  0  0
M  CHG  2  26   1  30  -1
M  END
> <rmsd>
0.102860712

$$$$
ZINC03914240


 36 40  0  0  0  0  0  0  0  0999 V2000
    3.4047   -4.1342    1.6720 C   0  0  0  0  0
    4.0587   -4.5864    2.8128 C   0  0  0  0  0
    3.7538   -2.9003    1.1486 C   0  0  0  0  0
   -4.2087   -1.2863    0.2906 C   0  0  0  0  0
    5.0532   -3.8058    3.4089 C   0  0  0  0  0
   -3.1735   -0.4828   -0.1394 C   0  0  0  0  0
    5.3523   -2.5573    2.8463 C   0  0  0  0  0
   -2.5632   -2.3534   -1.1082 C   0  0  0  0  0
    3.2529    0.4278   -0.1197 C   0  0  0  0  0
    3.8027   -0.0298    1.0304 C   0  0  0  0  0
    1.2401    1.7233   -0.9630 C   0  0  0  0  0
   -3.0396    0.9552    0.2172 C   0  0  0  0  0
    3.7894   -0.0518   -1.4634 C   0  0  0  0  0
   -1.8627    1.7304   -0.3143 C   0  0  0  0  0
    5.7346   -4.2769    4.6662 C   0  0  0  0  0
    6.4157   -1.6545    3.3909 C   0  0  0  0  0
    3.2195    0.2570    2.4122 C   0  0  0  0  0
    7.0199   -3.5064    4.9750 C   0  0  0  0  0
    6.7999   -2.0033    4.8281 C   0  0  0  0  0
    0.4727    2.3454    0.2386 C   0  0  0  0  0
    1.7203    1.9717    1.0683 C   0  0  0  0  0
   -4.6045    3.4421    2.0333 C   0  0  0  0  0
    5.0213   -0.8812    1.0972 C   0  0  0  0  0
   -2.2288   -1.0931   -0.9411 N   0  0  0  0  0
   -3.9162    1.5368    0.9791 N   0  0  0  0  0
    4.7019   -2.1606    1.7380 N   0  0  0  0  0
    2.1800    1.2601   -0.1106 N   0  0  0  0  0
   -1.8485   -3.2444   -1.8453 N   0  0  0  0  0
   -0.7923    1.6744    0.5340 N   0  0  0  0  0
    3.2283   -1.0841   -1.9149 O   0  0  0  0  0
    1.0592    1.6075   -2.1524 O   0  0  0  0  0
    4.7202    0.6500   -1.9382 O   0  0  0  0  0
   -1.9823    2.2939   -1.3903 O   0  0  0  0  0
   -3.6025    2.8856    1.1965 O   0  0  0  0  0
   -4.0021   -2.8719   -0.3298 S   0  0  0  0  0
    1.4702    0.7778    2.4020 S   0  0  0  0  0
  1  2  1  0  0  0
  3 26  1  0  0  0
  4 35  1  0  0  0
  5  7  1  0  0  0
  6 12  1  0  0  0
  6 24  1  0  0  0
  8 28  1  0  0  0
  8 35  1  0  0  0
  9 13  1  0  0  0
  9 27  1  0  0  0
 11 27  1  0  0  0
 12 14  1  0  0  0
 13 30  1  0  0  0
 14 29  1  0  0  0
 15  5  1  0  0  0
 15 18  1  0  0  0
 16  7  1  0  0  0
 16 19  1  0  0  0
 17 10  1  0  0  0
 17 36  1  0  0  0
 18 19  1  0  0  0
 20 11  1  0  0  0
 20 21  1  0  0  0
 20 29  1  0  0  0
 21 27  1  0  0  0
 21 36  1  0  0  0
 22 34  1  0  0  0
 23 10  1  0  0  0
 23 26  1  0  0  0
 25 34  1  0  0  0
  1  3  2  0  0  0
  2  5  2  0  0  0
  4  6  2  0  0  0
  7 26  2  0  0  0
  8 24  2  0  0  0
  9 10  2  0  0  0
 11 31  2  0  0  0
 12 25  2  0  0  0
 13 32  2  0  0  0
 14 33  2  0  0  0
M  CHG  2  26   1  30  -1
M  END
> <rmsd>
0.402753115

$$$$
ZINC02938536


 37 40  0  0  0  0  0  0  0  0999 V2000
   -3.6934   -2.5436    0.7789 C   0  0  0  0  0
   -3.4179   -1.1715    0.5653 C   0  0  0  0  0
   -4.0928   -3.3875   -0.2728 C   0  0  0  0  0
   -3.9037    0.1203   -3.4689 C   0  0  0  0  0
   -0.0013    2.2687   -1.6487 C   0  0  0  0  0
    0.8789    2.0339   -2.7049 C   0  0  0  0  0
   -3.4985    1.0665   -2.5105 C   0  0  0  0  0
    0.3041   -0.0043   -0.8890 C   0  0  0  0  0
   -3.5399   -0.6132   -0.7253 C   0  0  0  0  0
   -3.9379   -1.4981   -1.7199 C   0  0  0  0  0
   -4.2072   -2.8271   -1.5264 C   0  0  0  0  0
    1.1842   -0.2391   -1.9453 C   0  0  0  0  0
   -4.1171   -1.1686   -3.0338 C   0  0  0  0  0
   -0.2887    1.2495   -0.7405 C   0  0  0  0  0
    1.4717    0.7800   -2.8533 C   0  0  0  0  0
   -3.3160    0.7136   -1.1518 C   0  0  0  0  0
   -4.5920   -3.3876   -2.8400 C   0  0  0  0  0
    1.7907   -1.5570   -2.0789 C   0  0  0  0  0
    3.1518   -1.7768   -2.0474 C   0  0  0  0  0
    0.8766   -2.7578   -2.2585 C   0  0  0  0  0
    4.9043   -4.8528   -3.0525 C   0  0  0  0  0
    3.3549   -3.5332   -4.5389 C   0  0  0  0  0
    4.2340   -3.5096   -3.2978 C   0  0  0  0  0
   -0.0228   -2.7558   -3.4636 C   0  0  0  0  0
   -4.5163   -2.3118   -3.7292 N   0  0  0  0  0
   -1.1962    1.4924    0.3483 N   0  0  0  0  0
    4.0597   -0.8988   -1.9025 O   0  0  0  0  0
   -4.8991   -4.5453   -3.0470 O   0  0  0  0  0
    0.9045   -3.7148   -1.4867 O   0  0  0  0  0
   -3.6178    1.8149    1.1767 O   0  0  0  0  0
   -2.8035    3.2352   -0.7255 O   0  0  0  0  0
    2.3284    0.5776   -3.8947 O   0  0  0  0  0
    3.4369   -3.1681   -2.1636 O   0  0  0  0  0
    0.1454   -1.6352   -4.2123 F   0  0  0  0  0
    0.2037   -3.8105   -4.2868 F   0  0  0  0  0
   -1.3341   -2.7965   -3.1160 F   0  0  0  0  0
   -2.8109    1.9570   -0.0278 S   0  0  0  0  0
  1  3  1  0  0  0
  2  9  1  0  0  0
  4 13  1  0  0  0
  5 14  1  0  0  0
  6 15  1  0  0  0
  7 16  1  0  0  0
  8 12  1  0  0  0
  9 10  1  0  0  0
 10 11  1  0  0  0
 11 17  1  0  0  0
 12 18  1  0  0  0
 13 25  1  0  0  0
 14 26  1  0  0  0
 15 32  1  0  0  0
 17 25  1  0  0  0
 18 20  1  0  0  0
 19 27  1  0  0  0
 19 33  1  0  0  0
 21 23  1  0  0  0
 22 23  1  0  0  0
 23 33  1  0  0  0
 24 20  1  0  0  0
 24 34  1  0  0  0
 24 35  1  0  0  0
 24 36  1  0  0  0
 37 16  1  0  0  0
 37 26  1  0  0  0
  1  2  2  0  0  0
  3 11  2  0  0  0
  4  7  2  0  0  0
  5  6  2  0  0  0
  8 14  2  0  0  0
  9 16  2  0  0  0
 10 13  2  0  0  0
 12 15  2  0  0  0
 17 28  2  0  0  0
 18 19  2  0  0  0
 20 29  2  0  0  0
 37 30  2  0  0  0
 37 31  2  0  0  0
M  CHG  1  27  -1
M  END
> <rmsd>
0.465463102

$$$$
ZINC03871960


 37 40  0  0  0  0  0  0  0  0999 V2000
    7.9627    0.1934    2.9683 C   0  0  0  0  0
    7.6682    0.5782    1.6638 C   0  0  0  0  0
    7.1962   -0.7865    3.5921 C   0  0  0  0  0
    6.6062   -0.0312    1.0109 C   0  0  0  0  0
    6.1461   -1.3611    2.8904 C   0  0  0  0  0
   -4.4869   -1.1675    0.4478 C   0  0  0  0  0
   -3.4003   -0.4796   -0.0503 C   0  0  0  0  0
   -2.9975   -2.4346   -0.9590 C   0  0  0  0  0
    3.0783   -0.1613   -0.2851 C   0  0  0  0  0
    3.6271   -0.6219    0.8641 C   0  0  0  0  0
    1.1604    1.2792   -1.1143 C   0  0  0  0  0
   -3.1241    0.9530    0.2404 C   0  0  0  0  0
    3.5189   -0.7401   -1.6246 C   0  0  0  0  0
   -1.9028    1.5958   -0.3628 C   0  0  0  0  0
   -4.3971    2.8974    3.3551 C   0  0  0  0  0
    3.1241   -0.2291    2.2514 C   0  0  0  0  0
    0.4976    2.0155    0.0848 C   0  0  0  0  0
    1.7364    1.5618    0.8873 C   0  0  0  0  0
   -5.7424    3.6948    1.3005 C   0  0  0  0  0
   -3.8522    5.0500    2.2382 C   0  0  0  0  0
    4.7818   -1.5915    0.9267 C   0  0  0  0  0
   -4.3897    3.6419    2.0011 C   0  0  0  0  0
   -2.5450   -1.2046   -0.8568 N   0  0  0  0  0
   -3.9158    1.6418    1.0061 N   0  0  0  0  0
    5.8844   -0.9719    1.6352 N   0  0  0  0  0
    2.0859    0.7656   -0.2752 N   0  0  0  0  0
   -2.3942   -3.4155   -1.6812 N   0  0  0  0  0
   -0.8109    1.4752    0.4508 N   0  0  0  0  0
    2.8506   -1.7336   -2.0130 O   0  0  0  0  0
   -3.2897    2.8404    3.9604 O   0  0  0  0  0
    0.9256    1.1341   -2.2911 O   0  0  0  0  0
    4.4908   -0.1456   -2.1597 O   0  0  0  0  0
   -2.0112    2.1253   -1.4570 O   0  0  0  0  0
   -5.5185    2.4291    3.7080 O   0  0  0  0  0
   -3.4737    2.9636    1.1554 O   0  0  0  0  0
   -4.4472   -2.7883   -0.1114 S   0  0  0  0  0
    1.4298    0.4490    2.2780 S   0  0  0  0  0
  1  2  1  0  0  0
  3  5  1  0  0  0
  4 25  1  0  0  0
  6 36  1  0  0  0
  7 12  1  0  0  0
  7 23  1  0  0  0
  8 27  1  0  0  0
  8 36  1  0  0  0
  9 13  1  0  0  0
  9 26  1  0  0  0
 11 26  1  0  0  0
 12 14  1  0  0  0
 13 29  1  0  0  0
 14 28  1  0  0  0
 15 30  1  0  0  0
 16 10  1  0  0  0
 16 37  1  0  0  0
 17 11  1  0  0  0
 17 18  1  0  0  0
 17 28  1  0  0  0
 18 26  1  0  0  0
 18 37  1  0  0  0
 19 22  1  0  0  0
 20 22  1  0  0  0
 21 10  1  0  0  0
 21 25  1  0  0  0
 22 15  1  0  0  0
 22 35  1  0  0  0
 24 35  1  0  0  0
  1  3  2  0  0  0
  2  4  2  0  0  0
  5 25  2  0  0  0
  6  7  2  0  0  0
  8 23  2  0  0  0
  9 10  2  0  0  0
 11 31  2  0  0  0
 12 24  2  0  0  0
 13 32  2  0  0  0
 14 33  2  0  0  0
 15 34  2  0  0  0
M  CHG  3  25   1  29  -1  30  -1
M  END
> <rmsd>
0.102791607

$$$$
ZINC03871960


 37 40  0  0  0  0  0  0  0  0999 V2000
    7.9726    1.0851    3.3239 C   0  0  0  0  0
    7.6880    1.4966    2.0254 C   0  0  0  0  0
    7.2788    0.0146    3.8802 C   0  0  0  0  0
    6.7088    0.8219    1.3102 C   0  0  0  0  0
    6.3099   -0.6223    3.1179 C   0  0  0  0  0
   -4.2082   -1.2862    0.2908 C   0  0  0  0  0
   -3.1732   -0.4826   -0.1393 C   0  0  0  0  0
   -2.5627   -2.3532   -1.1079 C   0  0  0  0  0
    3.2531    0.4288   -0.1203 C   0  0  0  0  0
    3.8031   -0.0285    1.0297 C   0  0  0  0  0
    1.2401    1.7240   -0.9634 C   0  0  0  0  0
   -3.0395    0.9555    0.2172 C   0  0  0  0  0
    3.7895   -0.0508   -1.4640 C   0  0  0  0  0
   -1.8627    1.7308   -0.3146 C   0  0  0  0  0
   -4.5891    2.6437    3.3558 C   0  0  0  0  0
    3.2199    0.2583    2.4116 C   0  0  0  0  0
    0.4727    2.3462    0.2380 C   0  0  0  0  0
    1.7203    1.9727    1.0678 C   0  0  0  0  0
   -5.9322    3.4025    1.2853 C   0  0  0  0  0
   -4.2067    4.8820    2.3449 C   0  0  0  0  0
    5.0390   -0.8917    1.0974 C   0  0  0  0  0
   -4.6046    3.4423    2.0332 C   0  0  0  0  0
   -2.2285   -1.0928   -0.9411 N   0  0  0  0  0
   -3.9162    1.5371    0.9791 N   0  0  0  0  0
    6.0558   -0.2056    1.8700 N   0  0  0  0  0
    2.1801    1.2611   -0.1111 N   0  0  0  0  0
   -1.8480   -3.2442   -1.8449 N   0  0  0  0  0
   -0.7922    1.6750    0.5337 N   0  0  0  0  0
    3.2286   -1.0832   -1.9154 O   0  0  0  0  0
   -3.5020    2.6614    3.9993 O   0  0  0  0  0
    1.0591    1.6081   -2.1529 O   0  0  0  0  0
    4.7202    0.6511   -1.9389 O   0  0  0  0  0
   -1.9826    2.2941   -1.3906 O   0  0  0  0  0
   -5.6739    2.0616    3.6483 O   0  0  0  0  0
   -3.6025    2.8859    1.1963 O   0  0  0  0  0
   -4.0014   -2.8718   -0.3293 S   0  0  0  0  0
    1.4707    0.7790    2.4015 S   0  0  0  0  0
  1  2  1  0  0  0
  3  5  1  0  0  0
  4 25  1  0  0  0
  6 36  1  0  0  0
  7 12  1  0  0  0
  7 23  1  0  0  0
  8 27  1  0  0  0
  8 36  1  0  0  0
  9 13  1  0  0  0
  9 26  1  0  0  0
 11 26  1  0  0  0
 12 14  1  0  0  0
 13 29  1  0  0  0
 14 28  1  0  0  0
 15 30  1  0  0  0
 16 10  1  0  0  0
 16 37  1  0  0  0
 17 11  1  0  0  0
 17 18  1  0  0  0
 17 28  1  0  0  0
 18 26  1  0  0  0
 18 37  1  0  0  0
 19 22  1  0  0  0
 20 22  1  0  0  0
 21 10  1  0  0  0
 21 25  1  0  0  0
 22 15  1  0  0  0
 22 35  1  0  0  0
 24 35  1  0  0  0
  1  3  2  0  0  0
  2  4  2  0  0  0
  5 25  2  0  0  0
  6  7  2  0  0  0
  8 23  2  0  0  0
  9 10  2  0  0  0
 11 31  2  0  0  0
 12 24  2  0  0  0
 13 32  2  0  0  0
 14 33  2  0  0  0
 15 34  2  0  0  0
M  CHG  3  25   1  29  -1  30  -1
M  END
> <rmsd>
0.402635515

$$$$
ZINC03871960


 37 40  0  0  0  0  0  0  0  0999 V2000
    7.9744    1.0800    3.3527 C   0  0  0  0  0
    7.6937    1.4995    2.0559 C   0  0  0  0  0
    7.2803    0.0048    3.8994 C   0  0  0  0  0
    6.7182    0.8281    1.3328 C   0  0  0  0  0
    6.3152   -0.6287    3.1295 C   0  0  0  0  0
   -2.2555   -1.1550   -0.9593 C   0  0  0  0  0
   -3.1565   -0.4826   -0.1604 C   0  0  0  0  0
   -4.1209   -2.4523   -0.1596 C   0  0  0  0  0
    3.2682    0.4389   -0.1125 C   0  0  0  0  0
    3.8148   -0.0251    1.0364 C   0  0  0  0  0
    1.2561    1.7365   -0.9543 C   0  0  0  0  0
   -3.0263    0.9534    0.2060 C   0  0  0  0  0
    3.8102   -0.0310   -1.4575 C   0  0  0  0  0
   -1.8490    1.7340   -0.3165 C   0  0  0  0  0
   -4.5898    2.6184    3.3502 C   0  0  0  0  0
    3.2264    0.2517    2.4180 C   0  0  0  0  0
    0.4835    2.3495    0.2485 C   0  0  0  0  0
    1.7288    1.9725    1.0802 C   0  0  0  0  0
   -5.9268    3.3887    1.2799 C   0  0  0  0  0
   -4.2074    4.8639    2.3553 C   0  0  0  0  0
    5.0520   -0.8868    1.1027 C   0  0  0  0  0
   -4.6019    3.4257    2.0327 C   0  0  0  0  0
   -4.2271   -1.2248    0.2988 N   0  0  0  0  0
   -3.9066    1.5285    0.9686 N   0  0  0  0  0
    6.0649   -0.2042    1.8835 N   0  0  0  0  0
    2.1938    1.2694   -0.1017 N   0  0  0  0  0
   -5.0101   -3.4470    0.1012 N   0  0  0  0  0
   -0.7814    1.6743    0.5353 N   0  0  0  0  0
    3.2525   -1.0613   -1.9177 O   0  0  0  0  0
   -3.5051    2.6335    3.9976 O   0  0  0  0  0
    1.0796    1.6281   -2.1451 O   0  0  0  0  0
    4.7414    0.6755   -1.9244 O   0  0  0  0  0
   -1.9659    2.3042   -1.3891 O   0  0  0  0  0
   -5.6747    2.0326    3.6349 O   0  0  0  0  0
   -3.5959    2.8763    1.1958 O   0  0  0  0  0
   -2.7581   -2.7837   -1.1483 S   0  0  0  0  0
    1.4763    0.7696    2.4052 S   0  0  0  0  0
  1  2  1  0  0  0
  3  5  1  0  0  0
  4 25  1  0  0  0
  6 36  1  0  0  0
  7 12  1  0  0  0
  7 23  1  0  0  0
  8 27  1  0  0  0
  8 36  1  0  0  0
  9 13  1  0  0  0
  9 26  1  0  0  0
 11 26  1  0  0  0
 12 14  1  0  0  0
 13 29  1  0  0  0
 14 28  1  0  0  0
 15 30  1  0  0  0
 16 10  1  0  0  0
 16 37  1  0  0  0
 17 11  1  0  0  0
 17 18  1  0  0  0
 17 28  1  0  0  0
 18 26  1  0  0  0
 18 37  1  0  0  0
 19 22  1  0  0  0
 20 22  1  0  0  0
 21 10  1  0  0  0
 21 25  1  0  0  0
 22 15  1  0  0  0
 22 35  1  0  0  0
 24 35  1  0  0  0
  1  3  2  0  0  0
  2  4  2  0  0  0
  5 25  2  0  0  0
  6  7  2  0  0  0
  8 23  2  0  0  0
  9 10  2  0  0  0
 11 31  2  0  0  0
 12 24  2  0  0  0
 13 32  2  0  0  0
 14 33  2  0  0  0
 15 34  2  0  0  0
M  CHG  3  25   1  29  -1  30  -1
M  END
> <rmsd>
0.359823257

$$$$
ZINC03871960


 37 40  0  0  0  0  0  0  0  0999 V2000
    7.9672    0.1903    2.9897 C   0  0  0  0  0
    7.6766    0.5834    1.6868 C   0  0  0  0  0
    7.2003   -0.7950    3.6044 C   0  0  0  0  0
    6.6179   -0.0235    1.0262 C   0  0  0  0  0
    6.1537   -1.3668    2.8951 C   0  0  0  0  0
   -2.5780   -1.2647   -0.8730 C   0  0  0  0  0
   -3.3841   -0.4824   -0.0727 C   0  0  0  0  0
   -4.5211   -2.3541    0.0437 C   0  0  0  0  0
    3.0947   -0.1511   -0.2829 C   0  0  0  0  0
    3.6404   -0.6184    0.8652 C   0  0  0  0  0
    1.1772    1.2915   -1.1091 C   0  0  0  0  0
   -3.1114    0.9488    0.2286 C   0  0  0  0  0
    3.5410   -0.7202   -1.6247 C   0  0  0  0  0
   -1.8892    1.5977   -0.3660 C   0  0  0  0  0
   -4.3987    2.8700    3.3518 C   0  0  0  0  0
    3.1319   -0.2358    2.2533 C   0  0  0  0  0
    0.5089    2.0187    0.0927 C   0  0  0  0  0
    1.7458    1.5618    0.8964 C   0  0  0  0  0
   -5.7382    3.6788    1.2979 C   0  0  0  0  0
   -3.8537    5.0310    2.2512 C   0  0  0  0  0
    4.7966   -1.5864    0.9252 C   0  0  0  0  0
   -4.3879    3.6235    2.0028 C   0  0  0  0  0
   -4.4989   -1.1052    0.4535 N   0  0  0  0  0
   -3.9069    1.6310    0.9961 N   0  0  0  0  0
    5.8957   -0.9696    1.6417 N   0  0  0  0  0
    2.1006    0.7739   -0.2702 N   0  0  0  0  0
   -5.4857   -3.2524    0.3761 N   0  0  0  0  0
   -0.7998    1.4736    0.4505 N   0  0  0  0  0
    2.8759   -1.7122   -2.0220 O   0  0  0  0  0
   -3.2933    2.8109    3.9606 O   0  0  0  0  0
    0.9467    1.1539   -2.2876 O   0  0  0  0  0
    4.5137   -0.1204   -2.1524 O   0  0  0  0  0
   -1.9948    2.1344   -1.4571 O   0  0  0  0  0
   -5.5204    2.3974    3.6977 O   0  0  0  0  0
   -3.4678    2.9526    1.1558 O   0  0  0  0  0
   -3.2320   -2.8467   -0.9763 S   0  0  0  0  0
    1.4363    0.4391    2.2785 S   0  0  0  0  0
  1  2  1  0  0  0
  3  5  1  0  0  0
  4 25  1  0  0  0
  6 36  1  0  0  0
  7 12  1  0  0  0
  7 23  1  0  0  0
  8 27  1  0  0  0
  8 36  1  0  0  0
  9 13  1  0  0  0
  9 26  1  0  0  0
 11 26  1  0  0  0
 12 14  1  0  0  0
 13 29  1  0  0  0
 14 28  1  0  0  0
 15 30  1  0  0  0
 16 10  1  0  0  0
 16 37  1  0  0  0
 17 11  1  0  0  0
 17 18  1  0  0  0
 17 28  1  0  0  0
 18 26  1  0  0  0
 18 37  1  0  0  0
 19 22  1  0  0  0
 20 22  1  0  0  0
 21 10  1  0  0  0
 21 25  1  0  0  0
 22 15  1  0  0  0
 22 35  1  0  0  0
 24 35  1  0  0  0
  1  3  2  0  0  0
  2  4  2  0  0  0
  5 25  2  0  0  0
  6  7  2  0  0  0
  8 23  2  0  0  0
  9 10  2  0  0  0
 11 31  2  0  0  0
 12 24  2  0  0  0
 13 32  2  0  0  0
 14 33  2  0  0  0
 15 34  2  0  0  0
M  CHG  3  25   1  29  -1  30  -1
M  END
> <rmsd>
0.0605563298

$$$$
ZINC08035456


 37 40  0  0  0  0  0  0  0  0999 V2000
    6.1447   -2.7785    3.8968 C   0  0  0  0  0
    7.0064   -1.7004    3.7187 C   0  0  0  0  0
    5.1479   -3.0319    2.9594 C   0  0  0  0  0
    6.8482   -0.8964    2.5987 C   0  0  0  0  0
    5.0368   -2.1943    1.8587 C   0  0  0  0  0
   -4.6631   -1.0747    0.5472 C   0  0  0  0  0
   -3.5386   -0.4741    0.0211 C   0  0  0  0  0
   -3.2568   -2.4850   -0.8078 C   0  0  0  0  0
    3.4455    0.1564   -0.4166 C   0  0  0  0  0
    4.3675    0.3207    0.5612 C   0  0  0  0  0
    1.1392    0.9527   -1.0988 C   0  0  0  0  0
   -3.1758    0.9499    0.2533 C   0  0  0  0  0
    3.8141   -0.5768   -1.7007 C   0  0  0  0  0
   -1.9199    1.4931   -0.3760 C   0  0  0  0  0
   -4.3206    3.0917    3.2873 C   0  0  0  0  0
    4.1255    1.1638    1.8132 C   0  0  0  0  0
    0.5027    1.7853    0.0530 C   0  0  0  0  0
    1.6407    1.2099    0.9247 C   0  0  0  0  0
   -5.6216    3.8849    1.2027 C   0  0  0  0  0
   -3.6505    5.1607    2.0838 C   0  0  0  0  0
    5.7404   -0.3063    0.5507 C   0  0  0  0  0
   -4.2724    3.7790    1.9043 C   0  0  0  0  0
   -2.7307   -1.2813   -0.7558 N   0  0  0  0  0
   -3.9224    1.7154    0.9908 N   0  0  0  0  0
    5.8799   -1.1632    1.7117 N   0  0  0  0  0
    2.2085    0.7076   -0.3121 N   0  0  0  0  0
   -2.7154   -3.5287   -1.4901 N   0  0  0  0  0
   -0.8335    1.3404    0.4408 N   0  0  0  0  0
    3.6169   -1.8197   -1.6715 O   0  0  0  0  0
   -3.2169    2.9926    3.8939 O   0  0  0  0  0
    0.8611    0.6832   -2.2436 O   0  0  0  0  0
    4.2656    0.1605   -2.6159 O   0  0  0  0  0
   -1.9996    1.9835   -1.4907 O   0  0  0  0  0
   -5.4671    2.7064    3.6595 O   0  0  0  0  0
   -3.4014    3.0132    1.0863 O   0  0  0  0  0
   -4.7226   -2.7161    0.0541 S   0  0  0  0  0
    2.7922    2.3996    1.6438 S   0  0  0  0  0
  1  2  1  0  0  0
  3  5  1  0  0  0
  4 25  1  0  0  0
  6 36  1  0  0  0
  7 12  1  0  0  0
  7 23  1  0  0  0
  8 27  1  0  0  0
  8 36  1  0  0  0
  9 13  1  0  0  0
  9 26  1  0  0  0
 11 26  1  0  0  0
 12 14  1  0  0  0
 13 29  1  0  0  0
 14 28  1  0  0  0
 15 30  1  0  0  0
 16 10  1  0  0  0
 16 37  1  0  0  0
 17 11  1  0  0  0
 17 18  1  0  0  0
 17 28  1  0  0  0
 18 26  1  0  0  0
 18 37  1  0  0  0
 19 22  1  0  0  0
 20 22  1  0  0  0
 21 10  1  0  0  0
 21 25  1  0  0  0
 22 15  1  0  0  0
 22 35  1  0  0  0
 24 35  1  0  0  0
  1  3  2  0  0  0
  2  4  2  0  0  0
  5 25  2  0  0  0
  6  7  2  0  0  0
  8 23  2  0  0  0
  9 10  2  0  0  0
 11 31  2  0  0  0
 12 24  2  0  0  0
 13 32  2  0  0  0
 14 33  2  0  0  0
 15 34  2  0  0  0
M  CHG  3  25   1  29  -1  30  -1
M  END
> <rmsd>
0.16634275

$$$$
ZINC08035456


 37 40  0  0  0  0  0  0  0  0999 V2000
    6.5394   -2.1464    3.4519 C   0  0  0  0  0
    7.2965   -0.9843    3.3394 C   0  0  0  0  0
    5.5467   -2.4209    2.5160 C   0  0  0  0  0
    7.0398   -0.1189    2.2855 C   0  0  0  0  0
    5.3344   -1.5191    1.4829 C   0  0  0  0  0
   -4.4559   -1.1953    0.4303 C   0  0  0  0  0
   -3.4028   -0.4582   -0.0694 C   0  0  0  0  0
   -2.9624   -2.3696   -1.0507 C   0  0  0  0  0
    3.4840    0.8358   -0.5824 C   0  0  0  0  0
    4.4112    1.0120    0.3885 C   0  0  0  0  0
    1.0998    1.4661   -1.1625 C   0  0  0  0  0
   -3.1634    0.9723    0.2618 C   0  0  0  0  0
    3.8854    0.2344   -1.9239 C   0  0  0  0  0
   -1.9769    1.6718   -0.3474 C   0  0  0  0  0
   -4.4211    2.7749    3.4667 C   0  0  0  0  0
    4.1252    1.7364    1.7039 C   0  0  0  0  0
    0.4195    2.1515    0.0593 C   0  0  0  0  0
    1.6254    1.6204    0.8654 C   0  0  0  0  0
   -5.8383    3.5956    1.4703 C   0  0  0  0  0
   -3.9684    4.9783    2.4090 C   0  0  0  0  0
    5.8340    0.5151    0.3070 C   0  0  0  0  0
   -4.4683    3.5624    2.1381 C   0  0  0  0  0
   -2.5450   -1.1300   -0.9185 N   0  0  0  0  0
   -3.9574    1.6111    1.0674 N   0  0  0  0  0
    6.0780   -0.4076    1.3983 N   0  0  0  0  0
    2.2055    1.2630   -0.4153 N   0  0  0  0  0
   -2.3466   -3.3074   -1.8183 N   0  0  0  0  0
   -0.8616    1.5598    0.4364 N   0  0  0  0  0
    3.8011   -1.0202   -1.9839 O   0  0  0  0  0
   -3.2985    2.7330    4.0446 O   0  0  0  0  0
    0.8192    1.2563   -2.3191 O   0  0  0  0  0
    4.2466    1.0742   -2.7894 O   0  0  0  0  0
   -2.1273    2.2326   -1.4209 O   0  0  0  0  0
   -5.5191    2.2609    3.8293 O   0  0  0  0  0
   -3.5525    2.9405    1.2501 O   0  0  0  0  0
   -4.3802   -2.7952   -0.1826 S   0  0  0  0  0
    2.6829    2.8546    1.6506 S   0  0  0  0  0
  1  2  1  0  0  0
  3  5  1  0  0  0
  4 25  1  0  0  0
  6 36  1  0  0  0
  7 12  1  0  0  0
  7 23  1  0  0  0
  8 27  1  0  0  0
  8 36  1  0  0  0
  9 13  1  0  0  0
  9 26  1  0  0  0
 11 26  1  0  0  0
 12 14  1  0  0  0
 13 29  1  0  0  0
 14 28  1  0  0  0
 15 30  1  0  0  0
 16 10  1  0  0  0
 16 37  1  0  0  0
 17 11  1  0  0  0
 17 18  1  0  0  0
 17 28  1  0  0  0
 18 26  1  0  0  0
 18 37  1  0  0  0
 19 22  1  0  0  0
 20 22  1  0  0  0
 21 10  1  0  0  0
 21 25  1  0  0  0
 22 15  1  0  0  0
 22 35  1  0  0  0
 24 35  1  0  0  0
  1  3  2  0  0  0
  2  4  2  0  0  0
  5 25  2  0  0  0
  6  7  2  0  0  0
  8 23  2  0  0  0
  9 10  2  0  0  0
 11 31  2  0  0  0
 12 24  2  0  0  0
 13 32  2  0  0  0
 14 33  2  0  0  0
 15 34  2  0  0  0
M  CHG  3  25   1  29  -1  30  -1
M  END
> <rmsd>
0.193420634

$$$$
ZINC72131128


 34 36  0  0  0  0  0  0  0  0999 V2000
   -4.4865   -1.1686    0.4525 C   0  0  0  0  0
   -3.4002   -0.4813   -0.0471 C   0  0  0  0  0
   -3.0049   -2.4340   -0.9639 C   0  0  0  0  0
    3.0789   -0.1607   -0.2856 C   0  0  0  0  0
    3.6283   -0.6200    0.8640 C   0  0  0  0  0
    1.1599    1.2779   -1.1155 C   0  0  0  0  0
   -3.1242    0.9518    0.2418 C   0  0  0  0  0
    3.5207   -0.7395   -1.6246 C   0  0  0  0  0
   -1.9034    1.5940   -0.3626 C   0  0  0  0  0
    8.8525   -4.8175   -0.4206 C   0  0  0  0  0
    3.1258   -0.2260    2.2511 C   0  0  0  0  0
    0.4971    2.0150    0.0834 C   0  0  0  0  0
    1.7365    1.5627    0.8858 C   0  0  0  0  0
   -4.3897    3.6423    2.0001 C   0  0  0  0  0
    4.7872   -1.5849    0.9277 C   0  0  0  0  0
    6.2711   -4.6077   -0.7256 C   0  0  0  0  0
    7.5472   -5.4160   -0.9752 C   0  0  0  0  0
   -2.5493   -1.2053   -0.8591 N   0  0  0  0  0
   -3.9157    1.6412    1.0071 N   0  0  0  0  0
    2.0859    0.7656   -0.2762 N   0  0  0  0  0
   -2.4053   -3.4134   -1.6917 N   0  0  0  0  0
   -0.8110    1.4748    0.4505 N   0  0  0  0  0
    7.2706   -6.8211   -0.5338 N   0  0  0  0  0
    2.8544   -1.7344   -2.0125 O   0  0  0  0  0
    9.7264   -5.6622   -0.0729 O   0  0  0  0  0
    0.9248    1.1313   -2.2919 O   0  0  0  0  0
    4.4917   -0.1436   -2.1598 O   0  0  0  0  0
   -2.0125    2.1224   -1.4575 O   0  0  0  0  0
    8.8928   -3.5569   -0.3516 O   0  0  0  0  0
   -3.4740    2.9633    1.1547 O   0  0  0  0  0
   -4.4523   -2.7876   -0.1125 S   0  0  0  0  0
    1.4310    0.4511    2.2777 S   0  0  0  0  0
    4.1590   -3.2723    0.9405 S   0  0  0  0  0
    5.8959   -4.3735    1.0286 S   0  0  0  0  0
  1 31  1  0  0  0
  2  7  1  0  0  0
  2 18  1  0  0  0
  3 21  1  0  0  0
  3 31  1  0  0  0
  4  8  1  0  0  0
  4 20  1  0  0  0
  6 20  1  0  0  0
  7  9  1  0  0  0
  8 24  1  0  0  0
  9 22  1  0  0  0
 10 25  1  0  0  0
 11  5  1  0  0  0
 11 32  1  0  0  0
 12  6  1  0  0  0
 12 13  1  0  0  0
 12 22  1  0  0  0
 13 20  1  0  0  0
 13 32  1  0  0  0
 14 30  1  0  0  0
 15  5  1  0  0  0
 15 33  1  0  0  0
 16 17  1  0  0  0
 16 34  1  0  0  0
 17 10  1  0  0  0
 17 23  1  0  0  0
 19 30  1  0  0  0
 33 34  1  0  0  0
  1  2  2  0  0  0
  3 18  2  0  0  0
  4  5  2  0  0  0
  6 26  2  0  0  0
  7 19  2  0  0  0
  8 27  2  0  0  0
  9 28  2  0  0  0
 10 29  2  0  0  0
M  CHG  3  23   1  24  -1  25  -1
M  END
> <rmsd>
0.101356737

$$$$
ZINC72131128


 34 36  0  0  0  0  0  0  0  0999 V2000
   -4.2082   -1.2874    0.2957 C   0  0  0  0  0
   -3.1733   -0.4844   -0.1360 C   0  0  0  0  0
   -2.5702   -2.3530   -1.1129 C   0  0  0  0  0
    3.2534    0.4292   -0.1206 C   0  0  0  0  0
    3.8039   -0.0268    1.0298 C   0  0  0  0  0
    1.2396    1.7226   -0.9646 C   0  0  0  0  0
   -3.0396    0.9543    0.2186 C   0  0  0  0  0
    3.7911   -0.0504   -1.4638 C   0  0  0  0  0
   -1.8633    1.7290   -0.3145 C   0  0  0  0  0
    9.4309   -3.6779   -0.2222 C   0  0  0  0  0
    3.2211    0.2613    2.4116 C   0  0  0  0  0
    0.4722    2.3456    0.2366 C   0  0  0  0  0
    1.7203    1.9735    1.0663 C   0  0  0  0  0
   -4.6046    3.4430    2.0322 C   0  0  0  0  0
    5.0435   -0.8850    1.0989 C   0  0  0  0  0
    6.8528   -3.6892   -0.6146 C   0  0  0  0  0
    8.2052   -4.3678   -0.8479 C   0  0  0  0  0
   -2.2329   -1.0937   -0.9434 N   0  0  0  0  0
   -3.9162    1.5366    0.9802 N   0  0  0  0  0
    2.1800    1.2609   -0.1120 N   0  0  0  0  0
   -1.8593   -3.2427   -1.8555 N   0  0  0  0  0
   -0.7924    1.6746    0.5334 N   0  0  0  0  0
    8.0440   -5.8095   -0.4722 N   0  0  0  0  0
    3.2321   -1.0840   -1.9148 O   0  0  0  0  0
   10.3664   -4.4542    0.1245 O   0  0  0  0  0
    1.0585    1.6052   -2.1538 O   0  0  0  0  0
    4.7208    0.6528   -1.9389 O   0  0  0  0  0
   -1.9837    2.2911   -1.3912 O   0  0  0  0  0
    9.3531   -2.4229   -0.1027 O   0  0  0  0  0
   -3.6027    2.8858    1.1956 O   0  0  0  0  0
   -4.0068   -2.8713   -0.3304 S   0  0  0  0  0
    1.4715    0.7811    2.4015 S   0  0  0  0  0
    4.5725   -2.6213    1.0225 S   0  0  0  0  0
    6.3991   -3.5640    1.1322 S   0  0  0  0  0
  1 31  1  0  0  0
  2  7  1  0  0  0
  2 18  1  0  0  0
  3 21  1  0  0  0
  3 31  1  0  0  0
  4  8  1  0  0  0
  4 20  1  0  0  0
  6 20  1  0  0  0
  7  9  1  0  0  0
  8 24  1  0  0  0
  9 22  1  0  0  0
 10 25  1  0  0  0
 11  5  1  0  0  0
 11 32  1  0  0  0
 12  6  1  0  0  0
 12 13  1  0  0  0
 12 22  1  0  0  0
 13 20  1  0  0  0
 13 32  1  0  0  0
 14 30  1  0  0  0
 15  5  1  0  0  0
 15 33  1  0  0  0
 16 17  1  0  0  0
 16 34  1  0  0  0
 17 10  1  0  0  0
 17 23  1  0  0  0
 19 30  1  0  0  0
 33 34  1  0  0  0
  1  2  2  0  0  0
  3 18  2  0  0  0
  4  5  2  0  0  0
  6 26  2  0  0  0
  7 19  2  0  0  0
  8 27  2  0  0  0
  9 28  2  0  0  0
 10 29  2  0  0  0
M  CHG  3  23   1  24  -1  25  -1
M  END
> <rmsd>
0.400545508

$$$$
ZINC72131128


 34 36  0  0  0  0  0  0  0  0999 V2000
   -2.5803   -1.2625   -0.8760 C   0  0  0  0  0
   -3.3860   -0.4809   -0.0749 C   0  0  0  0  0
   -4.5175   -2.3556    0.0485 C   0  0  0  0  0
    3.0938   -0.1541   -0.2827 C   0  0  0  0  0
    3.6386   -0.6237    0.8649 C   0  0  0  0  0
    1.1774    1.2909   -1.1074 C   0  0  0  0  0
   -3.1122    0.9496    0.2284 C   0  0  0  0  0
    3.5417   -0.7202   -1.6251 C   0  0  0  0  0
   -1.8893    1.5982   -0.3648 C   0  0  0  0  0
    8.8710   -4.8059   -0.4362 C   0  0  0  0  0
    3.1299   -0.2429    2.2534 C   0  0  0  0  0
    0.5090    2.0165    0.0953 C   0  0  0  0  0
    1.7453    1.5576    0.8988 C   0  0  0  0  0
   -4.3870    3.6229    2.0061 C   0  0  0  0  0
    4.7978   -1.5884    0.9246 C   0  0  0  0  0
    6.2908   -4.5949   -0.7502 C   0  0  0  0  0
    7.5684   -5.4001   -1.0018 C   0  0  0  0  0
   -4.4977   -1.1058    0.4559 N   0  0  0  0  0
   -3.9074    1.6314    0.9967 N   0  0  0  0  0
    2.1002    0.7714   -0.2690 N   0  0  0  0  0
   -5.4792   -3.2555    0.3858 N   0  0  0  0  0
   -0.8003    1.4721    0.4518 N   0  0  0  0  0
    7.2909   -6.8093   -0.5747 N   0  0  0  0  0
    2.8777   -1.7119   -2.0251 O   0  0  0  0  0
    9.7440   -5.6532   -0.0926 O   0  0  0  0  0
    0.9475    1.1551   -2.2862 O   0  0  0  0  0
    4.5146   -0.1188   -2.1507 O   0  0  0  0  0
   -1.9941    2.1366   -1.4552 O   0  0  0  0  0
    8.9102   -3.5460   -0.3554 O   0  0  0  0  0
   -3.4673    2.9524    1.1584 O   0  0  0  0  0
   -3.2300   -2.8467   -0.9744 S   0  0  0  0  0
    1.4346    0.4329    2.2790 S   0  0  0  0  0
    4.1707   -3.2763    0.9191 S   0  0  0  0  0
    5.9079   -4.3771    1.0044 S   0  0  0  0  0
  1 31  1  0  0  0
  2  7  1  0  0  0
  2 18  1  0  0  0
  3 21  1  0  0  0
  3 31  1  0  0  0
  4  8  1  0  0  0
  4 20  1  0  0  0
  6 20  1  0  0  0
  7  9  1  0  0  0
  8 24  1  0  0  0
  9 22  1  0  0  0
 10 25  1  0  0  0
 11  5  1  0  0  0
 11 32  1  0  0  0
 12  6  1  0  0  0
 12 13  1  0  0  0
 12 22  1  0  0  0
 13 20  1  0  0  0
 13 32  1  0  0  0
 14 30  1  0  0  0
 15  5  1  0  0  0
 15 33  1  0  0  0
 16 17  1  0  0  0
 16 34  1  0  0  0
 17 10  1  0  0  0
 17 23  1  0  0  0
 19 30  1  0  0  0
 33 34  1  0  0  0
  1  2  2  0  0  0
  3 18  2  0  0  0
  4  5  2  0  0  0
  6 26  2  0  0  0
  7 19  2  0  0  0
  8 27  2  0  0  0
  9 28  2  0  0  0
 10 29  2  0  0  0
M  CHG  3  23   1  24  -1  25  -1
M  END
> <rmsd>
0.0605863705

$$$$
ZINC72131128


 34 36  0  0  0  0  0  0  0  0999 V2000
   -2.2577   -1.1532   -0.9616 C   0  0  0  0  0
   -3.1586   -0.4813   -0.1624 C   0  0  0  0  0
   -4.1177   -2.4536   -0.1543 C   0  0  0  0  0
    3.2675    0.4351   -0.1103 C   0  0  0  0  0
    3.8131   -0.0311    1.0384 C   0  0  0  0  0
    1.2568    1.7351   -0.9514 C   0  0  0  0  0
   -3.0272    0.9541    0.2058 C   0  0  0  0  0
    3.8114   -0.0321   -1.4554 C   0  0  0  0  0
   -1.8489    1.7342   -0.3150 C   0  0  0  0  0
    9.4474   -3.6682   -0.2219 C   0  0  0  0  0
    3.2242    0.2442    2.4201 C   0  0  0  0  0
    0.4838    2.3468    0.2520 C   0  0  0  0  0
    1.7284    1.9678    1.0837 C   0  0  0  0  0
   -4.6014    3.4256    2.0350 C   0  0  0  0  0
    5.0529   -0.8894    1.1051 C   0  0  0  0  0
    6.8711   -3.6770   -0.6257 C   0  0  0  0  0
    8.2249   -4.3529   -0.8592 C   0  0  0  0  0
   -4.2261   -1.2252    0.3012 N   0  0  0  0  0
   -3.9074    1.5291    0.9688 N   0  0  0  0  0
    2.1937    1.2661   -0.0989 N   0  0  0  0  0
   -5.0042   -3.4496    0.1113 N   0  0  0  0  0
   -0.7817    1.6726    0.5371 N   0  0  0  0  0
    8.0627   -5.7980   -0.4973 N   0  0  0  0  0
    3.2549   -1.0618   -1.9182 O   0  0  0  0  0
   10.3818   -4.4471    0.1219 O   0  0  0  0  0
    1.0810    1.6284   -2.1424 O   0  0  0  0  0
    4.7428    0.6758   -1.9200 O   0  0  0  0  0
   -1.9648    2.3060   -1.3871 O   0  0  0  0  0
    9.3685   -2.4143   -0.0913 O   0  0  0  0  0
   -3.5956    2.8764    1.1978 O   0  0  0  0  0
   -2.7562   -2.7839   -1.1455 S   0  0  0  0  0
    1.4743    0.7632    2.4069 S   0  0  0  0  0
    4.5831   -2.6251    1.0109 S   0  0  0  0  0
    6.4096   -3.5679    1.1201 S   0  0  0  0  0
  1 31  1  0  0  0
  2  7  1  0  0  0
  2 18  1  0  0  0
  3 21  1  0  0  0
  3 31  1  0  0  0
  4  8  1  0  0  0
  4 20  1  0  0  0
  6 20  1  0  0  0
  7  9  1  0  0  0
  8 24  1  0  0  0
  9 22  1  0  0  0
 10 25  1  0  0  0
 11  5  1  0  0  0
 11 32  1  0  0  0
 12  6  1  0  0  0
 12 13  1  0  0  0
 12 22  1  0  0  0
 13 20  1  0  0  0
 13 32  1  0  0  0
 14 30  1  0  0  0
 15  5  1  0  0  0
 15 33  1  0  0  0
 16 17  1  0  0  0
 16 34  1  0  0  0
 17 10  1  0  0  0
 17 23  1  0  0  0
 19 30  1  0  0  0
 33 34  1  0  0  0
  1  2  2  0  0  0
  3 18  2  0  0  0
  4  5  2  0  0  0
  6 26  2  0  0  0
  7 19  2  0  0  0
  8 27  2  0  0  0
  9 28  2  0  0  0
 10 29  2  0  0  0
M  CHG  3  23   1  24  -1  25  -1
M  END
> <rmsd>
0.359270871

$$$$
ZINC72131128


 34 36  0  0  0  0  0  0  0  0999 V2000
   -4.2081   -1.2874    0.2955 C   0  0  0  0  0
   -3.1733   -0.4844   -0.1363 C   0  0  0  0  0
   -2.5701   -2.3531   -1.1131 C   0  0  0  0  0
    3.2535    0.4293   -0.1208 C   0  0  0  0  0
    3.8039   -0.0267    1.0296 C   0  0  0  0  0
    1.2396    1.7226   -0.9648 C   0  0  0  0  0
   -3.0396    0.9542    0.2184 C   0  0  0  0  0
    3.7911   -0.0503   -1.4640 C   0  0  0  0  0
   -1.8633    1.7289   -0.3147 C   0  0  0  0  0
    8.1065   -5.8959    2.7709 C   0  0  0  0  0
    3.2212    0.2614    2.4114 C   0  0  0  0  0
    0.4722    2.3456    0.2363 C   0  0  0  0  0
    1.7203    1.9735    1.0660 C   0  0  0  0  0
   -4.6046    3.4429    2.0319 C   0  0  0  0  0
    5.0435   -0.8849    1.0987 C   0  0  0  0  0
    6.5967   -3.7749    2.9179 C   0  0  0  0  0
    7.9036   -4.4686    3.3108 C   0  0  0  0  0
   -2.2328   -1.0938   -0.9436 N   0  0  0  0  0
   -3.9162    1.5365    0.9799 N   0  0  0  0  0
    2.1800    1.2609   -0.1123 N   0  0  0  0  0
   -1.8592   -3.2428   -1.8557 N   0  0  0  0  0
   -0.7924    1.6746    0.5332 N   0  0  0  0  0
    9.0181   -3.5191    2.9923 N   0  0  0  0  0
    3.2322   -1.0840   -1.9150 O   0  0  0  0  0
    9.3081   -6.2226    2.5524 O   0  0  0  0  0
    1.0585    1.6052   -2.1540 O   0  0  0  0  0
    4.7208    0.6528   -1.9391 O   0  0  0  0  0
   -1.9837    2.2910   -1.3915 O   0  0  0  0  0
    7.0530   -6.5671    2.5834 O   0  0  0  0  0
   -3.6028    2.8857    1.1953 O   0  0  0  0  0
   -4.0067   -2.8714   -0.3306 S   0  0  0  0  0
    1.4715    0.7812    2.4012 S   0  0  0  0  0
    4.5726   -2.6212    1.0224 S   0  0  0  0  0
    6.3992   -3.5639    1.1320 S   0  0  0  0  0
  1 31  1  0  0  0
  2  7  1  0  0  0
  2 18  1  0  0  0
  3 21  1  0  0  0
  3 31  1  0  0  0
  4  8  1  0  0  0
  4 20  1  0  0  0
  6 20  1  0  0  0
  7  9  1  0  0  0
  8 24  1  0  0  0
  9 22  1  0  0  0
 10 25  1  0  0  0
 11  5  1  0  0  0
 11 32  1  0  0  0
 12  6  1  0  0  0
 12 13  1  0  0  0
 12 22  1  0  0  0
 13 20  1  0  0  0
 13 32  1  0  0  0
 14 30  1  0  0  0
 15  5  1  0  0  0
 15 33  1  0  0  0
 16 17  1  0  0  0
 16 34  1  0  0  0
 17 10  1  0  0  0
 17 23  1  0  0  0
 19 30  1  0  0  0
 33 34  1  0  0  0
  1  2  2  0  0  0
  3 18  2  0  0  0
  4  5  2  0  0  0
  6 26  2  0  0  0
  7 19  2  0  0  0
  8 27  2  0  0  0
  9 28  2  0  0  0
 10 29  2  0  0  0
M  CHG  3  23   1  24  -1  25  -1
M  END
> <rmsd>
0.400647044

$$$$
ZINC72131128


 34 36  0  0  0  0  0  0  0  0999 V2000
   -4.4865   -1.1687    0.4523 C   0  0  0  0  0
   -3.4002   -0.4814   -0.0473 C   0  0  0  0  0
   -3.0048   -2.4341   -0.9641 C   0  0  0  0  0
    3.0789   -0.1606   -0.2858 C   0  0  0  0  0
    3.6284   -0.6199    0.8638 C   0  0  0  0  0
    1.1599    1.2779   -1.1157 C   0  0  0  0  0
   -3.1242    0.9517    0.2415 C   0  0  0  0  0
    3.5208   -0.7395   -1.6248 C   0  0  0  0  0
   -1.9034    1.5940   -0.3629 C   0  0  0  0  0
    7.4458   -6.7863    2.7062 C   0  0  0  0  0
    3.1258   -0.2259    2.2509 C   0  0  0  0  0
    0.4971    2.0150    0.0831 C   0  0  0  0  0
    1.7365    1.5628    0.8855 C   0  0  0  0  0
   -4.3898    3.6422    1.9998 C   0  0  0  0  0
    4.7872   -1.5848    0.9275 C   0  0  0  0  0
    6.1400   -4.5318    2.8140 C   0  0  0  0  0
    7.3927   -5.3266    3.1918 C   0  0  0  0  0
   -2.5492   -1.2054   -0.8593 N   0  0  0  0  0
   -3.9157    1.6412    1.0068 N   0  0  0  0  0
    2.0859    0.7656   -0.2764 N   0  0  0  0  0
   -2.4052   -3.4135   -1.6918 N   0  0  0  0  0
   -0.8110    1.4748    0.4502 N   0  0  0  0  0
    8.5757   -4.4963    2.7964 N   0  0  0  0  0
    2.8544   -1.7344   -2.0127 O   0  0  0  0  0
    8.6040   -7.2301    2.4616 O   0  0  0  0  0
    0.9249    1.1313   -2.2921 O   0  0  0  0  0
    4.4917   -0.1436   -2.1600 O   0  0  0  0  0
   -2.0125    2.1223   -1.4577 O   0  0  0  0  0
    6.3297   -7.3650    2.5827 O   0  0  0  0  0
   -3.4741    2.9633    1.1544 O   0  0  0  0  0
   -4.4522   -2.7877   -0.1127 S   0  0  0  0  0
    1.4310    0.4512    2.2775 S   0  0  0  0  0
    4.1591   -3.2722    0.9404 S   0  0  0  0  0
    5.8960   -4.3734    1.0285 S   0  0  0  0  0
  1 31  1  0  0  0
  2  7  1  0  0  0
  2 18  1  0  0  0
  3 21  1  0  0  0
  3 31  1  0  0  0
  4  8  1  0  0  0
  4 20  1  0  0  0
  6 20  1  0  0  0
  7  9  1  0  0  0
  8 24  1  0  0  0
  9 22  1  0  0  0
 10 25  1  0  0  0
 11  5  1  0  0  0
 11 32  1  0  0  0
 12  6  1  0  0  0
 12 13  1  0  0  0
 12 22  1  0  0  0
 13 20  1  0  0  0
 13 32  1  0  0  0
 14 30  1  0  0  0
 15  5  1  0  0  0
 15 33  1  0  0  0
 16 17  1  0  0  0
 16 34  1  0  0  0
 17 10  1  0  0  0
 17 23  1  0  0  0
 19 30  1  0  0  0
 33 34  1  0  0  0
  1  2  2  0  0  0
  3 18  2  0  0  0
  4  5  2  0  0  0
  6 26  2  0  0  0
  7 19  2  0  0  0
  8 27  2  0  0  0
  9 28  2  0  0  0
 10 29  2  0  0  0
M  CHG  3  23   1  24  -1  25  -1
M  END
> <rmsd>
0.101353385

$$$$
ZINC72131128


 34 36  0  0  0  0  0  0  0  0999 V2000
   -4.2079   -1.2877    0.2955 C   0  0  0  0  0
   -3.1730   -0.4847   -0.1362 C   0  0  0  0  0
   -2.5699   -2.3534   -1.1130 C   0  0  0  0  0
    3.2537    0.4291   -0.1208 C   0  0  0  0  0
    3.8041   -0.0268    1.0297 C   0  0  0  0  0
    1.2397    1.7224   -0.9648 C   0  0  0  0  0
   -3.0394    0.9540    0.2184 C   0  0  0  0  0
    3.7914   -0.0505   -1.4639 C   0  0  0  0  0
   -1.8631    1.7287   -0.3147 C   0  0  0  0  0
   10.9193   -2.0631   -0.0751 C   0  0  0  0  0
    3.2214    0.2614    2.4114 C   0  0  0  0  0
    0.4724    2.3454    0.2363 C   0  0  0  0  0
    1.7205    1.9734    1.0660 C   0  0  0  0  0
   -4.6045    3.4427    2.0318 C   0  0  0  0  0
    5.0438   -0.8850    1.0988 C   0  0  0  0  0
    8.4221   -1.4097   -0.4455 C   0  0  0  0  0
    9.5559   -2.4059   -0.7023 C   0  0  0  0  0
   -2.2326   -1.0941   -0.9436 N   0  0  0  0  0
   -3.9160    1.5363    0.9799 N   0  0  0  0  0
    2.1802    1.2608   -0.1123 N   0  0  0  0  0
   -1.8589   -3.2431   -1.8555 N   0  0  0  0  0
   -0.7922    1.6744    0.5332 N   0  0  0  0  0
    9.0340   -3.7658   -0.3508 N   0  0  0  0  0
    3.2324   -1.0842   -1.9149 O   0  0  0  0  0
   11.6274   -3.0587    0.2498 O   0  0  0  0  0
    1.0587    1.6049   -2.1540 O   0  0  0  0  0
    4.7210    0.6527   -1.9391 O   0  0  0  0  0
   -1.9835    2.2907   -1.3915 O   0  0  0  0  0
   11.1644   -0.8322    0.0672 O   0  0  0  0  0
   -3.6026    2.8855    1.1953 O   0  0  0  0  0
   -4.0064   -2.8717   -0.3305 S   0  0  0  0  0
    1.4717    0.7811    2.4013 S   0  0  0  0  0
    6.4954    0.1721    1.2297 S   0  0  0  0  0
    8.0218   -1.2067    1.3070 S   0  0  0  0  0
  1 31  1  0  0  0
  2  7  1  0  0  0
  2 18  1  0  0  0
  3 21  1  0  0  0
  3 31  1  0  0  0
  4  8  1  0  0  0
  4 20  1  0  0  0
  6 20  1  0  0  0
  7  9  1  0  0  0
  8 24  1  0  0  0
  9 22  1  0  0  0
 10 25  1  0  0  0
 11  5  1  0  0  0
 11 32  1  0  0  0
 12  6  1  0  0  0
 12 13  1  0  0  0
 12 22  1  0  0  0
 13 20  1  0  0  0
 13 32  1  0  0  0
 14 30  1  0  0  0
 15  5  1  0  0  0
 15 33  1  0  0  0
 16 17  1  0  0  0
 16 34  1  0  0  0
 17 10  1  0  0  0
 17 23  1  0  0  0
 19 30  1  0  0  0
 33 34  1  0  0  0
  1  2  2  0  0  0
  3 18  2  0  0  0
  4  5  2  0  0  0
  6 26  2  0  0  0
  7 19  2  0  0  0
  8 27  2  0  0  0
  9 28  2  0  0  0
 10 29  2  0  0  0
M  CHG  3  23   1  24  -1  25  -1
M  END
> <rmsd>
0.400517493

$$$$
ZINC72131128


 34 36  0  0  0  0  0  0  0  0999 V2000
   -4.4863   -1.1690    0.4524 C   0  0  0  0  0
   -3.4000   -0.4817   -0.0473 C   0  0  0  0  0
   -3.0046   -2.4344   -0.9639 C   0  0  0  0  0
    3.0791   -0.1608   -0.2857 C   0  0  0  0  0
    3.6286   -0.6201    0.8639 C   0  0  0  0  0
    1.1600    1.2777   -1.1157 C   0  0  0  0  0
   -3.1240    0.9514    0.2416 C   0  0  0  0  0
    3.5210   -0.7397   -1.6247 C   0  0  0  0  0
   -1.9033    1.5937   -0.3629 C   0  0  0  0  0
   10.4850   -3.3414   -0.3917 C   0  0  0  0  0
    3.1260   -0.2260    2.2510 C   0  0  0  0  0
    0.4972    2.0148    0.0831 C   0  0  0  0  0
    1.7367    1.5626    0.8855 C   0  0  0  0  0
   -4.3896    3.6419    1.9997 C   0  0  0  0  0
    4.7875   -1.5849    0.9276 C   0  0  0  0  0
    8.0449   -2.4769   -0.7054 C   0  0  0  0  0
    9.0738   -3.5820   -0.9578 C   0  0  0  0  0
   -2.5490   -1.2057   -0.8592 N   0  0  0  0  0
   -3.9155    1.6409    1.0068 N   0  0  0  0  0
    2.0861    0.7654   -0.2764 N   0  0  0  0  0
   -2.4049   -3.4138   -1.6917 N   0  0  0  0  0
   -0.8108    1.4745    0.4502 N   0  0  0  0  0
    8.4448   -4.8736   -0.5319 N   0  0  0  0  0
    2.8547   -1.7346   -2.0126 O   0  0  0  0  0
   11.1120   -4.3843   -0.0489 O   0  0  0  0  0
    0.9250    1.1310   -2.2921 O   0  0  0  0  0
    4.4919   -0.1437   -2.1600 O   0  0  0  0  0
   -2.0124    2.1220   -1.4578 O   0  0  0  0  0
   10.8453   -2.1335   -0.3098 O   0  0  0  0  0
   -3.4739    2.9630    1.1544 O   0  0  0  0  0
   -4.4519   -2.7880   -0.1126 S   0  0  0  0  0
    1.4312    0.4510    2.2775 S   0  0  0  0  0
    6.3324   -0.6610    0.9651 S   0  0  0  0  0
    7.7300   -2.1698    1.0493 S   0  0  0  0  0
  1 31  1  0  0  0
  2  7  1  0  0  0
  2 18  1  0  0  0
  3 21  1  0  0  0
  3 31  1  0  0  0
  4  8  1  0  0  0
  4 20  1  0  0  0
  6 20  1  0  0  0
  7  9  1  0  0  0
  8 24  1  0  0  0
  9 22  1  0  0  0
 10 25  1  0  0  0
 11  5  1  0  0  0
 11 32  1  0  0  0
 12  6  1  0  0  0
 12 13  1  0  0  0
 12 22  1  0  0  0
 13 20  1  0  0  0
 13 32  1  0  0  0
 14 30  1  0  0  0
 15  5  1  0  0  0
 15 33  1  0  0  0
 16 17  1  0  0  0
 16 34  1  0  0  0
 17 10  1  0  0  0
 17 23  1  0  0  0
 19 30  1  0  0  0
 33 34  1  0  0  0
  1  2  2  0  0  0
  3 18  2  0  0  0
  4  5  2  0  0  0
  6 26  2  0  0  0
  7 19  2  0  0  0
  8 27  2  0  0  0
  9 28  2  0  0  0
 10 29  2  0  0  0
M  CHG  3  23   1  24  -1  25  -1
M  END
> <rmsd>
0.101358488

$$$$
ZINC28467879


 36 39  0  0  0  0  0  0  0  0999 V2000
   -4.2082   -1.2865    0.2905 C   0  0  0  0  0
   -3.1732   -0.4829   -0.1395 C   0  0  0  0  0
   -2.5626   -2.3533   -1.1083 C   0  0  0  0  0
    3.2532    0.4283   -0.1203 C   0  0  0  0  0
    3.8031   -0.0291    1.0298 C   0  0  0  0  0
    8.5801   -4.5016    1.1882 C   0  0  0  0  0
    7.7637   -4.1950    2.4549 C   0  0  0  0  0
    1.2402    1.7237   -0.9634 C   0  0  0  0  0
    6.1357   -3.3626    1.1170 C   0  0  0  0  0
   -3.0394    0.9553    0.2171 C   0  0  0  0  0
    3.7896   -0.0511   -1.4640 C   0  0  0  0  0
   -1.8626    1.7305   -0.3146 C   0  0  0  0  0
    3.2199    0.2577    2.4116 C   0  0  0  0  0
    0.4728    2.3458    0.2381 C   0  0  0  0  0
    1.7205    1.9722    1.0679 C   0  0  0  0  0
    6.4299   -3.3519   -1.3902 C   0  0  0  0  0
   -4.6045    3.4420    2.0332 C   0  0  0  0  0
    5.0390   -0.8923    1.0973 C   0  0  0  0  0
   -2.2284   -1.0930   -0.9413 N   0  0  0  0  0
    8.1016   -4.2138    0.0178 N   0  0  0  0  0
    6.5228   -3.6109    2.3294 N   0  0  0  0  0
   -3.9161    1.5368    0.9790 N   0  0  0  0  0
    2.1802    1.2607   -0.1111 N   0  0  0  0  0
    6.8651   -3.6378   -0.0292 N   0  0  0  0  0
   -1.8480   -3.2443   -1.8453 N   0  0  0  0  0
   -0.7921    1.6746    0.5337 N   0  0  0  0  0
    9.6568   -5.0191    1.5262 O   0  0  0  0  0
    3.2287   -1.0835   -1.9155 O   0  0  0  0  0
    8.2307   -4.4757    3.5538 O   0  0  0  0  0
    1.0593    1.6079   -2.1528 O   0  0  0  0  0
    4.7203    0.6508   -1.9388 O   0  0  0  0  0
   -1.9824    2.2940   -1.3906 O   0  0  0  0  0
   -3.6023    2.8856    1.1963 O   0  0  0  0  0
   -4.0014   -2.8720   -0.3298 S   0  0  0  0  0
    1.4707    0.7784    2.4015 S   0  0  0  0  0
    4.5610   -2.6268    1.0224 S   0  0  0  0  0
  1 34  1  0  0  0
  2 10  1  0  0  0
  2 19  1  0  0  0
  3 25  1  0  0  0
  3 34  1  0  0  0
  4 11  1  0  0  0
  4 23  1  0  0  0
  6  7  1  0  0  0
  6 20  1  0  0  0
  7 21  1  0  0  0
  8 23  1  0  0  0
  9 24  1  0  0  0
  9 36  1  0  0  0
 10 12  1  0  0  0
 11 28  1  0  0  0
 12 26  1  0  0  0
 13  5  1  0  0  0
 13 35  1  0  0  0
 14  8  1  0  0  0
 14 15  1  0  0  0
 14 26  1  0  0  0
 15 23  1  0  0  0
 15 35  1  0  0  0
 16 24  1  0  0  0
 17 33  1  0  0  0
 18  5  1  0  0  0
 18 36  1  0  0  0
 22 33  1  0  0  0
 24 20  1  0  0  0
  1  2  2  0  0  0
  3 19  2  0  0  0
  4  5  2  0  0  0
  6 27  2  0  0  0
  7 29  2  0  0  0
  8 30  2  0  0  0
  9 21  2  0  0  0
 10 22  2  0  0  0
 11 31  2  0  0  0
 12 32  2  0  0  0
M  CHG  2  27  -1  28  -1
M  END
> <rmsd>
0.40264377

$$$$
ZINC28467879


 36 39  0  0  0  0  0  0  0  0999 V2000
   -4.4869   -1.1677    0.4474 C   0  0  0  0  0
   -3.4003   -0.4798   -0.0505 C   0  0  0  0  0
   -2.9976   -2.4348   -0.9594 C   0  0  0  0  0
    3.0783   -0.1617   -0.2851 C   0  0  0  0  0
    3.6271   -0.6224    0.8641 C   0  0  0  0  0
    7.9835   -5.5045    1.0512 C   0  0  0  0  0
    7.2458   -5.0752    2.3303 C   0  0  0  0  0
    1.1605    1.2789   -1.1143 C   0  0  0  0  0
    5.6510   -4.1499    1.0139 C   0  0  0  0  0
   -3.1240    0.9528    0.2403 C   0  0  0  0  0
    3.5189   -0.7404   -1.6247 C   0  0  0  0  0
   -1.9027    1.5955   -0.3628 C   0  0  0  0  0
    3.1241   -0.2297    2.2514 C   0  0  0  0  0
    0.4977    2.0152    0.0849 C   0  0  0  0  0
    1.7365    1.5614    0.8874 C   0  0  0  0  0
    5.8514   -4.2640   -1.5001 C   0  0  0  0  0
   -4.3896    3.6415    2.0012 C   0  0  0  0  0
    4.7818   -1.5921    0.9266 C   0  0  0  0  0
   -2.5449   -1.2048   -0.8571 N   0  0  0  0  0
    7.4897   -5.2200   -0.1137 N   0  0  0  0  0
    6.0590   -4.3851    2.2220 N   0  0  0  0  0
   -3.9157    1.6415    1.0060 N   0  0  0  0  0
    2.0859    0.7652   -0.2752 N   0  0  0  0  0
    6.3094   -4.5353   -0.1435 N   0  0  0  0  0
   -2.3942   -3.4156   -1.6817 N   0  0  0  0  0
   -0.8108    1.4748    0.4508 N   0  0  0  0  0
    9.0209   -6.1050    1.3744 O   0  0  0  0  0
    2.8507   -1.7338   -2.0131 O   0  0  0  0  0
    7.7262   -5.3544    3.4239 O   0  0  0  0  0
    0.9258    1.1339   -2.2911 O   0  0  0  0  0
    4.4909   -0.1459   -2.1596 O   0  0  0  0  0
   -2.0111    2.1252   -1.4570 O   0  0  0  0  0
   -3.4736    2.9633    1.1555 O   0  0  0  0  0
   -4.4473   -2.7885   -0.1119 S   0  0  0  0  0
    1.4298    0.4484    2.2779 S   0  0  0  0  0
    4.1467   -3.2770    0.9410 S   0  0  0  0  0
  1 34  1  0  0  0
  2 10  1  0  0  0
  2 19  1  0  0  0
  3 25  1  0  0  0
  3 34  1  0  0  0
  4 11  1  0  0  0
  4 23  1  0  0  0
  6  7  1  0  0  0
  6 20  1  0  0  0
  7 21  1  0  0  0
  8 23  1  0  0  0
  9 24  1  0  0  0
  9 36  1  0  0  0
 10 12  1  0  0  0
 11 28  1  0  0  0
 12 26  1  0  0  0
 13  5  1  0  0  0
 13 35  1  0  0  0
 14  8  1  0  0  0
 14 15  1  0  0  0
 14 26  1  0  0  0
 15 23  1  0  0  0
 15 35  1  0  0  0
 16 24  1  0  0  0
 17 33  1  0  0  0
 18  5  1  0  0  0
 18 36  1  0  0  0
 22 33  1  0  0  0
 24 20  1  0  0  0
  1  2  2  0  0  0
  3 19  2  0  0  0
  4  5  2  0  0  0
  6 27  2  0  0  0
  7 29  2  0  0  0
  8 30  2  0  0  0
  9 21  2  0  0  0
 10 22  2  0  0  0
 11 31  2  0  0  0
 12 32  2  0  0  0
M  CHG  2  27  -1  28  -1
M  END
> <rmsd>
0.102866881

$$$$
ZINC28467879


 36 39  0  0  0  0  0  0  0  0999 V2000
   -2.5784   -1.2649   -0.8730 C   0  0  0  0  0
   -3.3844   -0.4825   -0.0727 C   0  0  0  0  0
   -4.5215   -2.3543    0.0436 C   0  0  0  0  0
    3.0944   -0.1515   -0.2828 C   0  0  0  0  0
    3.6401   -0.6189    0.8652 C   0  0  0  0  0
    8.0045   -5.4945    1.0348 C   0  0  0  0  0
    7.2616   -5.0751    2.3142 C   0  0  0  0  0
    1.1769    1.2913   -1.1089 C   0  0  0  0  0
    5.6697   -4.1438    0.9985 C   0  0  0  0  0
   -3.1117    0.9486    0.2287 C   0  0  0  0  0
    3.5407   -0.7205   -1.6246 C   0  0  0  0  0
   -1.8894    1.5975   -0.3659 C   0  0  0  0  0
    3.1316   -0.2363    2.2533 C   0  0  0  0  0
    0.5087    2.0183    0.0929 C   0  0  0  0  0
    1.7455    1.5614    0.8966 C   0  0  0  0  0
    5.8789   -4.2407   -1.5155 C   0  0  0  0  0
   -4.3880    3.6233    2.0031 C   0  0  0  0  0
    4.7962   -1.5869    0.9253 C   0  0  0  0  0
   -4.4993   -1.1054    0.4535 N   0  0  0  0  0
    7.5142   -5.2031   -0.1298 N   0  0  0  0  0
    6.0739   -4.3863    2.2064 N   0  0  0  0  0
   -3.9072    1.6308    0.9962 N   0  0  0  0  0
    2.1004    0.7736   -0.2701 N   0  0  0  0  0
    6.3327   -4.5203   -0.1592 N   0  0  0  0  0
   -5.4861   -3.2526    0.3759 N   0  0  0  0  0
   -0.8001    1.4733    0.4506 N   0  0  0  0  0
    9.0418   -6.0953    1.3576 O   0  0  0  0  0
    2.8755   -1.7125   -2.0220 O   0  0  0  0  0
    7.7387   -5.3607    3.4075 O   0  0  0  0  0
    0.9465    1.1536   -2.2875 O   0  0  0  0  0
    4.5134   -0.1207   -2.1523 O   0  0  0  0  0
   -1.9950    2.1342   -1.4569 O   0  0  0  0  0
   -3.4680    2.9523    1.1560 O   0  0  0  0  0
   -3.2324   -2.8469   -0.9764 S   0  0  0  0  0
    1.4360    0.4386    2.2786 S   0  0  0  0  0
    4.1641   -3.2731    0.9263 S   0  0  0  0  0
  1 34  1  0  0  0
  2 10  1  0  0  0
  2 19  1  0  0  0
  3 25  1  0  0  0
  3 34  1  0  0  0
  4 11  1  0  0  0
  4 23  1  0  0  0
  6  7  1  0  0  0
  6 20  1  0  0  0
  7 21  1  0  0  0
  8 23  1  0  0  0
  9 24  1  0  0  0
  9 36  1  0  0  0
 10 12  1  0  0  0
 11 28  1  0  0  0
 12 26  1  0  0  0
 13  5  1  0  0  0
 13 35  1  0  0  0
 14  8  1  0  0  0
 14 15  1  0  0  0
 14 26  1  0  0  0
 15 23  1  0  0  0
 15 35  1  0  0  0
 16 24  1  0  0  0
 17 33  1  0  0  0
 18  5  1  0  0  0
 18 36  1  0  0  0
 22 33  1  0  0  0
 24 20  1  0  0  0
  1  2  2  0  0  0
  3 19  2  0  0  0
  4  5  2  0  0  0
  6 27  2  0  0  0
  7 29  2  0  0  0
  8 30  2  0  0  0
  9 21  2  0  0  0
 10 22  2  0  0  0
 11 31  2  0  0  0
 12 32  2  0  0  0
M  CHG  2  27  -1  28  -1
M  END
> <rmsd>
0.0605438836

$$$$
ZINC28467879


 36 39  0  0  0  0  0  0  0  0999 V2000
   -2.2558   -1.1552   -0.9593 C   0  0  0  0  0
   -3.1568   -0.4828   -0.1604 C   0  0  0  0  0
   -4.1213   -2.4525   -0.1597 C   0  0  0  0  0
    3.2680    0.4384   -0.1124 C   0  0  0  0  0
    3.8146   -0.0257    1.0365 C   0  0  0  0  0
    8.5982   -4.4915    1.1825 C   0  0  0  0  0
    7.7768   -4.1946    2.4482 C   0  0  0  0  0
    1.2559    1.7361   -0.9541 C   0  0  0  0  0
    6.1522   -3.3560    1.1101 C   0  0  0  0  0
   -3.0266    0.9531    0.2061 C   0  0  0  0  0
    3.8099   -0.0314   -1.4574 C   0  0  0  0  0
   -1.8492    1.7337   -0.3163 C   0  0  0  0  0
    3.2261    0.2511    2.4181 C   0  0  0  0  0
    0.4833    2.3491    0.2487 C   0  0  0  0  0
    1.7286    1.9720    1.0804 C   0  0  0  0  0
    6.4552   -3.3283   -1.3960 C   0  0  0  0  0
   -4.6021    3.4254    2.0329 C   0  0  0  0  0
    5.0516   -0.8874    1.1028 C   0  0  0  0  0
   -4.2274   -1.2250    0.2987 N   0  0  0  0  0
    8.1233   -4.1969    0.0123 N   0  0  0  0  0
    6.5355   -3.6116    2.3222 N   0  0  0  0  0
   -3.9069    1.5283    0.9687 N   0  0  0  0  0
    2.1936    1.2690   -0.1016 N   0  0  0  0  0
    6.8861   -3.6225   -0.0353 N   0  0  0  0  0
   -5.0105   -3.4471    0.1010 N   0  0  0  0  0
   -0.7816    1.6740    0.5354 N   0  0  0  0  0
    9.6745   -5.0095    1.5209 O   0  0  0  0  0
    3.2522   -1.0616   -1.9177 O   0  0  0  0  0
    8.2404   -4.4817    3.5469 O   0  0  0  0  0
    1.0794    1.6278   -2.1450 O   0  0  0  0  0
    4.7412    0.6751   -1.9243 O   0  0  0  0  0
   -1.9661    2.3040   -1.3890 O   0  0  0  0  0
   -3.5961    2.8761    1.1960 O   0  0  0  0  0
   -2.7584   -2.7839   -1.1484 S   0  0  0  0  0
    1.4760    0.7691    2.4053 S   0  0  0  0  0
    4.5767   -2.6221    1.0147 S   0  0  0  0  0
  1 34  1  0  0  0
  2 10  1  0  0  0
  2 19  1  0  0  0
  3 25  1  0  0  0
  3 34  1  0  0  0
  4 11  1  0  0  0
  4 23  1  0  0  0
  6  7  1  0  0  0
  6 20  1  0  0  0
  7 21  1  0  0  0
  8 23  1  0  0  0
  9 24  1  0  0  0
  9 36  1  0  0  0
 10 12  1  0  0  0
 11 28  1  0  0  0
 12 26  1  0  0  0
 13  5  1  0  0  0
 13 35  1  0  0  0
 14  8  1  0  0  0
 14 15  1  0  0  0
 14 26  1  0  0  0
 15 23  1  0  0  0
 15 35  1  0  0  0
 16 24  1  0  0  0
 17 33  1  0  0  0
 18  5  1  0  0  0
 18 36  1  0  0  0
 22 33  1  0  0  0
 24 20  1  0  0  0
  1  2  2  0  0  0
  3 19  2  0  0  0
  4  5  2  0  0  0
  6 27  2  0  0  0
  7 29  2  0  0  0
  8 30  2  0  0  0
  9 21  2  0  0  0
 10 22  2  0  0  0
 11 31  2  0  0  0
 12 32  2  0  0  0
M  CHG  2  27  -1  28  -1
M  END
> <rmsd>
0.360028923

$$$$
ZINC28467879


 36 39  0  0  0  0  0  0  0  0999 V2000
   -4.4871   -1.1676    0.4470 C   0  0  0  0  0
   -3.4005   -0.4797   -0.0509 C   0  0  0  0  0
   -2.9978   -2.4346   -0.9598 C   0  0  0  0  0
    3.0781   -0.1617   -0.2854 C   0  0  0  0  0
    3.6269   -0.6224    0.8638 C   0  0  0  0  0
    7.9785   -5.4999    1.2020 C   0  0  0  0  0
    7.3351   -5.1275   -0.1442 C   0  0  0  0  0
    1.1604    1.2791   -1.1145 C   0  0  0  0  0
    5.6507   -4.1499    1.0135 C   0  0  0  0  0
   -3.1242    0.9529    0.2399 C   0  0  0  0  0
    3.5187   -0.7403   -1.6250 C   0  0  0  0  0
   -1.9029    1.5957   -0.3631 C   0  0  0  0  0
    3.1238   -0.2297    2.2511 C   0  0  0  0  0
    0.4975    2.0153    0.0847 C   0  0  0  0  0
    1.7363    1.5614    0.8872 C   0  0  0  0  0
    5.6666   -4.1615    3.5378 C   0  0  0  0  0
   -4.3898    3.6416    2.0009 C   0  0  0  0  0
    4.7815   -1.5921    0.9263 C   0  0  0  0  0
   -2.5451   -1.2047   -0.8575 N   0  0  0  0  0
    7.4041   -5.1644    2.3151 N   0  0  0  0  0
    6.1433   -4.4373   -0.1510 N   0  0  0  0  0
   -3.9159    1.6417    1.0056 N   0  0  0  0  0
    2.0857    0.7653   -0.2755 N   0  0  0  0  0
    6.2259   -4.4805    2.2306 N   0  0  0  0  0
   -2.3944   -3.4154   -1.6822 N   0  0  0  0  0
   -0.8110    1.4749    0.4505 N   0  0  0  0  0
    9.0345   -6.1140    0.9800 O   0  0  0  0  0
    2.8505   -1.7337   -2.0135 O   0  0  0  0  0
    7.8933   -5.4509   -1.1874 O   0  0  0  0  0
    0.9256    1.1341   -2.2913 O   0  0  0  0  0
    4.4907   -0.1458   -2.1599 O   0  0  0  0  0
   -2.0112    2.1254   -1.4572 O   0  0  0  0  0
   -3.4738    2.9634    1.1552 O   0  0  0  0  0
   -4.4475   -2.7884   -0.1124 S   0  0  0  0  0
    1.4296    0.4484    2.2777 S   0  0  0  0  0
    4.1464   -3.2770    0.9406 S   0  0  0  0  0
  1 34  1  0  0  0
  2 10  1  0  0  0
  2 19  1  0  0  0
  3 25  1  0  0  0
  3 34  1  0  0  0
  4 11  1  0  0  0
  4 23  1  0  0  0
  6  7  1  0  0  0
  6 20  1  0  0  0
  7 21  1  0  0  0
  8 23  1  0  0  0
  9 24  1  0  0  0
  9 36  1  0  0  0
 10 12  1  0  0  0
 11 28  1  0  0  0
 12 26  1  0  0  0
 13  5  1  0  0  0
 13 35  1  0  0  0
 14  8  1  0  0  0
 14 15  1  0  0  0
 14 26  1  0  0  0
 15 23  1  0  0  0
 15 35  1  0  0  0
 16 24  1  0  0  0
 17 33  1  0  0  0
 18  5  1  0  0  0
 18 36  1  0  0  0
 22 33  1  0  0  0
 24 20  1  0  0  0
  1  2  2  0  0  0
  3 19  2  0  0  0
  4  5  2  0  0  0
  6 27  2  0  0  0
  7 29  2  0  0  0
  8 30  2  0  0  0
  9 21  2  0  0  0
 10 22  2  0  0  0
 11 31  2  0  0  0
 12 32  2  0  0  0
M  CHG  2  27  -1  28  -1
M  END
> <rmsd>
0.102891862

$$$$
ZINC28467879


 36 39  0  0  0  0  0  0  0  0999 V2000
   -4.2084   -1.2863    0.2900 C   0  0  0  0  0
   -3.1734   -0.4827   -0.1399 C   0  0  0  0  0
   -2.5629   -2.3532   -1.1087 C   0  0  0  0  0
    3.2530    0.4284   -0.1205 C   0  0  0  0  0
    3.8029   -0.0291    1.0295 C   0  0  0  0  0
    8.5697   -4.5038    1.3389 C   0  0  0  0  0
    7.9402   -4.1345   -0.0148 C   0  0  0  0  0
    1.2401    1.7238   -0.9636 C   0  0  0  0  0
    6.1354   -3.3627    1.1167 C   0  0  0  0  0
   -3.0396    0.9554    0.2167 C   0  0  0  0  0
    3.7894   -0.0510   -1.4643 C   0  0  0  0  0
   -1.8628    1.7306   -0.3149 C   0  0  0  0  0
    3.2197    0.2577    2.4114 C   0  0  0  0  0
    0.4727    2.3459    0.2379 C   0  0  0  0  0
    1.7203    1.9722    1.0676 C   0  0  0  0  0
    6.0677   -3.4794    3.6375 C   0  0  0  0  0
   -4.6046    3.4421    2.0329 C   0  0  0  0  0
    5.0388   -0.8923    1.0970 C   0  0  0  0  0
   -2.2286   -1.0928   -0.9417 N   0  0  0  0  0
    7.9299   -4.2688    2.4421 N   0  0  0  0  0
    6.6911   -3.5550   -0.0390 N   0  0  0  0  0
   -3.9163    1.5369    0.9787 N   0  0  0  0  0
    2.1800    1.2607   -0.1113 N   0  0  0  0  0
    6.6975   -3.6911    2.3405 N   0  0  0  0  0
   -1.8482   -3.2441   -1.8458 N   0  0  0  0  0
   -0.7923    1.6747    0.5335 N   0  0  0  0  0
    9.6843   -5.0102    1.1325 O   0  0  0  0  0
    3.2285   -1.0834   -1.9158 O   0  0  0  0  0
    8.5604   -4.3618   -1.0483 O   0  0  0  0  0
    1.0592    1.6081   -2.1531 O   0  0  0  0  0
    4.7202    0.6509   -1.9391 O   0  0  0  0  0
   -1.9825    2.2941   -1.3908 O   0  0  0  0  0
   -3.6025    2.8857    1.1960 O   0  0  0  0  0
   -4.0017   -2.8718   -0.3303 S   0  0  0  0  0
    1.4704    0.7784    2.4013 S   0  0  0  0  0
    4.5607   -2.6268    1.0220 S   0  0  0  0  0
  1 34  1  0  0  0
  2 10  1  0  0  0
  2 19  1  0  0  0
  3 25  1  0  0  0
  3 34  1  0  0  0
  4 11  1  0  0  0
  4 23  1  0  0  0
  6  7  1  0  0  0
  6 20  1  0  0  0
  7 21  1  0  0  0
  8 23  1  0  0  0
  9 24  1  0  0  0
  9 36  1  0  0  0
 10 12  1  0  0  0
 11 28  1  0  0  0
 12 26  1  0  0  0
 13  5  1  0  0  0
 13 35  1  0  0  0
 14  8  1  0  0  0
 14 15  1  0  0  0
 14 26  1  0  0  0
 15 23  1  0  0  0
 15 35  1  0  0  0
 16 24  1  0  0  0
 17 33  1  0  0  0
 18  5  1  0  0  0
 18 36  1  0  0  0
 22 33  1  0  0  0
 24 20  1  0  0  0
  1  2  2  0  0  0
  3 19  2  0  0  0
  4  5  2  0  0  0
  6 27  2  0  0  0
  7 29  2  0  0  0
  8 30  2  0  0  0
  9 21  2  0  0  0
 10 22  2  0  0  0
 11 31  2  0  0  0
 12 32  2  0  0  0
M  CHG  2  27  -1  28  -1
M  END
> <rmsd>
0.402821034

$$$$
ZINC77285478


 38 41  0  0  0  0  0  0  0  0999 V2000
    7.9629    1.1051    3.3319 C   0  0  0  0  0
    7.6796    1.5151    2.0327 C   0  0  0  0  0
    7.2729    0.0313    3.8864 C   0  0  0  0  0
    6.7055    0.8356    1.3150 C   0  0  0  0  0
    6.3091   -0.6104    3.1219 C   0  0  0  0  0
   -4.2082   -1.2874    0.2958 C   0  0  0  0  0
   -3.1734   -0.4844   -0.1359 C   0  0  0  0  0
   -2.5702   -2.3530   -1.1129 C   0  0  0  0  0
    3.2534    0.4293   -0.1206 C   0  0  0  0  0
    3.8039   -0.0267    1.0298 C   0  0  0  0  0
    1.2395    1.7226   -0.9644 C   0  0  0  0  0
   -3.0398    0.9542    0.2188 C   0  0  0  0  0
    3.7910   -0.0502   -1.4638 C   0  0  0  0  0
   -1.8634    1.7290   -0.3142 C   0  0  0  0  0
   -4.6442    2.6991    3.3647 C   0  0  0  0  0
    3.2211    0.2613    2.4116 C   0  0  0  0  0
    0.4721    2.3456    0.2367 C   0  0  0  0  0
    1.7202    1.9736    1.0664 C   0  0  0  0  0
   -4.2462    4.9030    2.2905 C   0  0  0  0  0
   -5.9466    3.3296    1.3111 C   0  0  0  0  0
   -5.7596    2.5810    5.4492 C   0  0  0  0  0
    5.0435   -0.8851    1.0988 C   0  0  0  0  0
   -4.6047    3.4429    2.0325 C   0  0  0  0  0
   -2.2329   -1.0937   -0.9433 N   0  0  0  0  0
   -3.9163    1.5365    0.9805 N   0  0  0  0  0
    6.0562   -0.1950    1.8732 N   0  0  0  0  0
    2.1799    1.2609   -0.1119 N   0  0  0  0  0
   -1.8594   -3.2426   -1.8555 N   0  0  0  0  0
   -0.7924    1.6745    0.5336 N   0  0  0  0  0
    3.2319   -1.0838   -1.9149 O   0  0  0  0  0
    1.0583    1.6053   -2.1537 O   0  0  0  0  0
    4.7207    0.6530   -1.9389 O   0  0  0  0  0
   -1.9837    2.2912   -1.3909 O   0  0  0  0  0
   -3.9297    1.7413    3.6358 O   0  0  0  0  0
   -5.6035    3.2258    4.1810 O   0  0  0  0  0
   -3.6028    2.8856    1.1959 O   0  0  0  0  0
   -4.0069   -2.8714   -0.3303 S   0  0  0  0  0
    1.4715    0.7809    2.4015 S   0  0  0  0  0
  1  2  1  0  0  0
  3  5  1  0  0  0
  4 26  1  0  0  0
  6 37  1  0  0  0
  7 12  1  0  0  0
  7 24  1  0  0  0
  8 28  1  0  0  0
  8 37  1  0  0  0
  9 13  1  0  0  0
  9 27  1  0  0  0
 11 27  1  0  0  0
 12 14  1  0  0  0
 13 30  1  0  0  0
 14 29  1  0  0  0
 15 35  1  0  0  0
 16 10  1  0  0  0
 16 38  1  0  0  0
 17 11  1  0  0  0
 17 18  1  0  0  0
 17 29  1  0  0  0
 18 27  1  0  0  0
 18 38  1  0  0  0
 19 23  1  0  0  0
 20 23  1  0  0  0
 21 35  1  0  0  0
 22 10  1  0  0  0
 22 26  1  0  0  0
 23 15  1  0  0  0
 23 36  1  0  0  0
 25 36  1  0  0  0
  1  3  2  0  0  0
  2  4  2  0  0  0
  5 26  2  0  0  0
  6  7  2  0  0  0
  8 24  2  0  0  0
  9 10  2  0  0  0
 11 31  2  0  0  0
 12 25  2  0  0  0
 13 32  2  0  0  0
 14 33  2  0  0  0
 15 34  2  0  0  0
M  CHG  2  26   1  30  -1
M  END
> <rmsd>
0.400559843

$$$$
ZINC77285478


 38 41  0  0  0  0  0  0  0  0999 V2000
    7.9550    0.2149    2.9763 C   0  0  0  0  0
    7.6618    0.5981    1.6711 C   0  0  0  0  0
    7.1920   -0.7687    3.5985 C   0  0  0  0  0
    6.6044   -0.0167    1.0157 C   0  0  0  0  0
    6.1465   -1.3487    2.8944 C   0  0  0  0  0
   -4.4866   -1.1686    0.4527 C   0  0  0  0  0
   -3.4004   -0.4813   -0.0469 C   0  0  0  0  0
   -3.0049   -2.4340   -0.9637 C   0  0  0  0  0
    3.0787   -0.1606   -0.2851 C   0  0  0  0  0
    3.6282   -0.6199    0.8644 C   0  0  0  0  0
    1.1598    1.2779   -1.1150 C   0  0  0  0  0
   -3.1244    0.9518    0.2420 C   0  0  0  0  0
    3.5207   -0.7394   -1.6241 C   0  0  0  0  0
   -1.9035    1.5940   -0.3623 C   0  0  0  0  0
   -4.4468    2.9578    3.3633 C   0  0  0  0  0
    3.1255   -0.2260    2.2515 C   0  0  0  0  0
    0.4970    2.0150    0.0837 C   0  0  0  0  0
    1.7364    1.5628    0.8862 C   0  0  0  0  0
   -3.8918    5.0723    2.1843 C   0  0  0  0  0
   -5.7624    3.6244    1.3296 C   0  0  0  0  0
   -5.4902    3.0239    5.4871 C   0  0  0  0  0
    4.7870   -1.5850    0.9281 C   0  0  0  0  0
   -4.3900    3.6423    2.0003 C   0  0  0  0  0
   -2.5493   -1.2053   -0.8589 N   0  0  0  0  0
   -3.9159    1.6412    1.0073 N   0  0  0  0  0
    5.8859   -0.9609    1.6384 N   0  0  0  0  0
    2.0858    0.7656   -0.2757 N   0  0  0  0  0
   -2.4053   -3.4133   -1.6915 N   0  0  0  0  0
   -0.8111    1.4748    0.4508 N   0  0  0  0  0
    2.8543   -1.7343   -2.0122 O   0  0  0  0  0
    0.9247    1.1314   -2.2915 O   0  0  0  0  0
    4.4917   -0.1435   -2.1593 O   0  0  0  0  0
   -2.0125    2.1224   -1.4571 O   0  0  0  0  0
   -3.8121    1.9499    3.6506 O   0  0  0  0  0
   -5.3238    3.6016    4.1883 O   0  0  0  0  0
   -3.4742    2.9633    1.1549 O   0  0  0  0  0
   -4.4524   -2.7876   -0.1123 S   0  0  0  0  0
    1.4308    0.4510    2.2780 S   0  0  0  0  0
  1  2  1  0  0  0
  3  5  1  0  0  0
  4 26  1  0  0  0
  6 37  1  0  0  0
  7 12  1  0  0  0
  7 24  1  0  0  0
  8 28  1  0  0  0
  8 37  1  0  0  0
  9 13  1  0  0  0
  9 27  1  0  0  0
 11 27  1  0  0  0
 12 14  1  0  0  0
 13 30  1  0  0  0
 14 29  1  0  0  0
 15 35  1  0  0  0
 16 10  1  0  0  0
 16 38  1  0  0  0
 17 11  1  0  0  0
 17 18  1  0  0  0
 17 29  1  0  0  0
 18 27  1  0  0  0
 18 38  1  0  0  0
 19 23  1  0  0  0
 20 23  1  0  0  0
 21 35  1  0  0  0
 22 10  1  0  0  0
 22 26  1  0  0  0
 23 15  1  0  0  0
 23 36  1  0  0  0
 25 36  1  0  0  0
  1  3  2  0  0  0
  2  4  2  0  0  0
  5 26  2  0  0  0
  6  7  2  0  0  0
  8 24  2  0  0  0
  9 10  2  0  0  0
 11 31  2  0  0  0
 12 25  2  0  0  0
 13 32  2  0  0  0
 14 33  2  0  0  0
 15 34  2  0  0  0
M  CHG  2  26   1  30  -1
M  END
> <rmsd>
0.101428181

$$$$
ZINC72283740


 39 42  0  0  0  0  0  0  0  0999 V2000
   -4.4859   -1.1681    0.4509 C   0  0  0  0  0
   -3.3974   -0.4828   -0.0468 C   0  0  0  0  0
   -3.0007   -2.4379   -0.9578 C   0  0  0  0  0
    3.6144   -0.6354    0.8790 C   0  0  0  0  0
    3.0726   -0.1783   -0.2742 C   0  0  0  0  0
    9.4933   -0.9112   -3.0496 C   0  0  0  0  0
    9.0501   -2.3550   -3.2415 C   0  0  0  0  0
    1.1687    1.2680   -1.1041 C   0  0  0  0  0
    8.0128   -2.0183   -1.1125 C   0  0  0  0  0
    4.7175   -1.5757    0.9370 C   0  0  0  0  0
    5.7551   -1.5166    0.1050 C   0  0  0  0  0
    6.3451   -4.2046   -2.6053 C   0  0  0  0  0
   -3.1212    0.9507    0.2397 C   0  0  0  0  0
    3.5104   -0.7397   -1.6260 C   0  0  0  0  0
   -1.8980    1.5907   -0.3623 C   0  0  0  0  0
    3.1232   -0.2327    2.2673 C   0  0  0  0  0
    0.5014    2.0107    0.0903 C   0  0  0  0  0
    1.7382    1.5588    0.8992 C   0  0  0  0  0
   -4.3902    3.6463    1.9877 C   0  0  0  0  0
    7.8093   -4.2280   -2.2706 C   0  0  0  0  0
   -2.5444   -1.2094   -0.8544 N   0  0  0  0  0
    9.1761   -0.2301   -1.9975 N   0  0  0  0  0
    8.4106   -0.7963   -0.9924 N   0  0  0  0  0
   -3.9146    1.6426    1.0008 N   0  0  0  0  0
    2.0863    0.7558   -0.2570 N   0  0  0  0  0
    8.2880   -2.8450   -2.1878 N   0  0  0  0  0
   -2.3995   -3.4195   -1.6814 N   0  0  0  0  0
   -0.8082    1.4724    0.4546 N   0  0  0  0  0
   10.1620   -0.5855   -4.0447 O   0  0  0  0  0
    3.3184   -1.9744   -1.7653 O   0  0  0  0  0
    9.3613   -2.9825   -4.2474 O   0  0  0  0  0
    0.9383    1.1198   -2.2812 O   0  0  0  0  0
    5.6777   -5.2288   -2.7253 O   0  0  0  0  0
    4.0014    0.1114   -2.4104 O   0  0  0  0  0
   -2.0032    2.1165   -1.4586 O   0  0  0  0  0
   -3.4724    2.9647    1.1468 O   0  0  0  0  0
   -4.4511   -2.7884   -0.1102 S   0  0  0  0  0
    1.4292    0.4537    2.2947 S   0  0  0  0  0
    7.0667   -2.6416    0.1817 S   0  0  0  0  0
  1 37  1  0  0  0
  2 13  1  0  0  0
  2 21  1  0  0  0
  3 27  1  0  0  0
  3 37  1  0  0  0
  4 10  1  0  0  0
  5 14  1  0  0  0
  5 25  1  0  0  0
  6  7  1  0  0  0
  6 22  1  0  0  0
  7 26  1  0  0  0
  8 25  1  0  0  0
  9 26  1  0  0  0
  9 39  1  0  0  0
 11 39  1  0  0  0
 13 15  1  0  0  0
 14 30  1  0  0  0
 15 28  1  0  0  0
 16  4  1  0  0  0
 16 38  1  0  0  0
 17  8  1  0  0  0
 17 18  1  0  0  0
 17 28  1  0  0  0
 18 25  1  0  0  0
 18 38  1  0  0  0
 19 36  1  0  0  0
 20 12  1  0  0  0
 20 26  1  0  0  0
 22 23  1  0  0  0
 24 36  1  0  0  0
  1  2  2  0  0  0
  3 21  2  0  0  0
  4  5  2  0  0  0
  6 29  2  0  0  0
  7 31  2  0  0  0
  8 32  2  0  0  0
  9 23  2  0  0  0
 10 11  2  0  0  0
 12 33  2  0  0  0
 13 24  2  0  0  0
 14 34  2  0  0  0
 15 35  2  0  0  0
M  CHG  2  29  -1  30  -1
M  END
> <rmsd>
0.101198904

$$$$
ZINC72283740


 39 42  0  0  0  0  0  0  0  0999 V2000
   -4.2623   -1.2763    0.3280 C   0  0  0  0  0
   -3.2506   -0.4580   -0.1291 C   0  0  0  0  0
   -2.6773   -2.3025   -1.1677 C   0  0  0  0  0
    3.7530    0.0109    0.7509 C   0  0  0  0  0
    3.1570    0.4867   -0.3674 C   0  0  0  0  0
    9.5871    0.5608   -3.2156 C   0  0  0  0  0
    9.2831   -0.9038   -3.4992 C   0  0  0  0  0
    1.1132    1.7921   -1.0919 C   0  0  0  0  0
    8.2420   -0.8074   -1.3479 C   0  0  0  0  0
    4.9423   -0.8197    0.7420 C   0  0  0  0  0
    5.9601   -0.6067   -0.0893 C   0  0  0  0  0
    6.7765   -3.0442   -2.9722 C   0  0  0  0  0
   -3.1108    0.9741    0.2490 C   0  0  0  0  0
    3.6318    0.0589   -1.7550 C   0  0  0  0  0
   -1.9618    1.7672   -0.3158 C   0  0  0  0  0
    3.2408    0.2736    2.1649 C   0  0  0  0  0
    0.3907    2.3880    0.1517 C   0  0  0  0  0
    1.6743    2.0069    0.9234 C   0  0  0  0  0
   -4.6145    3.4154    2.1755 C   0  0  0  0  0
    8.2397   -2.9470   -2.6468 C   0  0  0  0  0
   -2.3405   -1.0448   -0.9865 N   0  0  0  0  0
    9.2173    1.1386   -2.1198 N   0  0  0  0  0
    8.5214    0.4372   -1.1502 N   0  0  0  0  0
   -3.9588    1.5352    1.0575 N   0  0  0  0  0
    2.0854    1.3177   -0.2845 N   0  0  0  0  0
    8.5837   -1.5323   -2.4761 N   0  0  0  0  0
   -1.9922   -3.1724   -1.9568 N   0  0  0  0  0
   -0.8567    1.7027    0.4864 N   0  0  0  0  0
   10.2101    1.0134   -4.1905 O   0  0  0  0  0
    3.5583   -1.1771   -1.9737 O   0  0  0  0  0
    9.6422   -1.4319   -4.5455 O   0  0  0  0  0
    0.8852    1.6985   -2.2750 O   0  0  0  0  0
    6.2097   -4.1184   -3.1555 O   0  0  0  0  0
    4.0296    1.0025   -2.4845 O   0  0  0  0  0
   -2.1295    2.3500   -1.3749 O   0  0  0  0  0
   -3.6446    2.8818    1.2875 O   0  0  0  0  0
   -4.0776   -2.8460   -0.3379 S   0  0  0  0  0
    1.4889    0.7893    2.2452 S   0  0  0  0  0
    7.3749   -1.6017   -0.0926 S   0  0  0  0  0
  1 37  1  0  0  0
  2 13  1  0  0  0
  2 21  1  0  0  0
  3 27  1  0  0  0
  3 37  1  0  0  0
  4 10  1  0  0  0
  5 14  1  0  0  0
  5 25  1  0  0  0
  6  7  1  0  0  0
  6 22  1  0  0  0
  7 26  1  0  0  0
  8 25  1  0  0  0
  9 26  1  0  0  0
  9 39  1  0  0  0
 11 39  1  0  0  0
 13 15  1  0  0  0
 14 30  1  0  0  0
 15 28  1  0  0  0
 16  4  1  0  0  0
 16 38  1  0  0  0
 17  8  1  0  0  0
 17 18  1  0  0  0
 17 28  1  0  0  0
 18 25  1  0  0  0
 18 38  1  0  0  0
 19 36  1  0  0  0
 20 12  1  0  0  0
 20 26  1  0  0  0
 22 23  1  0  0  0
 24 36  1  0  0  0
  1  2  2  0  0  0
  3 21  2  0  0  0
  4  5  2  0  0  0
  6 29  2  0  0  0
  7 31  2  0  0  0
  8 32  2  0  0  0
  9 23  2  0  0  0
 10 11  2  0  0  0
 12 33  2  0  0  0
 13 24  2  0  0  0
 14 34  2  0  0  0
 15 35  2  0  0  0
M  CHG  2  29  -1  30  -1
M  END
> <rmsd>
0.349171609

$$$$
ZINC72283740


 39 42  0  0  0  0  0  0  0  0999 V2000
   -2.5754   -1.2670   -0.8708 C   0  0  0  0  0
   -3.3832   -0.4827   -0.0741 C   0  0  0  0  0
   -4.5163   -2.3563    0.0505 C   0  0  0  0  0
    3.6248   -0.6387    0.8796 C   0  0  0  0  0
    3.0876   -0.1717   -0.2717 C   0  0  0  0  0
    9.5204   -0.8748   -3.0265 C   0  0  0  0  0
    9.0790   -2.3172   -3.2333 C   0  0  0  0  0
    1.1860    1.2808   -1.0964 C   0  0  0  0  0
    8.0325   -2.0005   -1.1058 C   0  0  0  0  0
    4.7283   -1.5787    0.9338 C   0  0  0  0  0
    5.7694   -1.5114    0.1067 C   0  0  0  0  0
    6.3728   -4.1743   -2.6253 C   0  0  0  0  0
   -3.1092    0.9483    0.2264 C   0  0  0  0  0
    3.5314   -0.7205   -1.6266 C   0  0  0  0  0
   -1.8840    1.5946   -0.3646 C   0  0  0  0  0
    3.1275   -0.2490    2.2694 C   0  0  0  0  0
    0.5132    2.0122    0.1019 C   0  0  0  0  0
    1.7469    1.5538    0.9118 C   0  0  0  0  0
   -4.3876    3.6271    1.9934 C   0  0  0  0  0
    7.8355   -4.1998   -2.2847 C   0  0  0  0  0
   -4.4969   -1.1055    0.4547 N   0  0  0  0  0
    9.1982   -0.2035   -1.9697 N   0  0  0  0  0
    8.4290   -0.7793   -0.9730 N   0  0  0  0  0
   -3.9064    1.6327    0.9904 N   0  0  0  0  0
    2.1005    0.7616   -0.2502 N   0  0  0  0  0
    8.3129   -2.8172   -2.1873 N   0  0  0  0  0
   -5.4798   -3.2546    0.3871 N   0  0  0  0  0
   -0.7975    1.4696    0.4557 N   0  0  0  0  0
   10.1930   -0.5396   -4.0158 O   0  0  0  0  0
    3.3409   -1.9540   -1.7779 O   0  0  0  0  0
    9.3949   -2.9353   -4.2436 O   0  0  0  0  0
    0.9607    1.1431   -2.2758 O   0  0  0  0  0
    5.7066   -5.1979   -2.7573 O   0  0  0  0  0
    4.0250    0.1381   -2.4012 O   0  0  0  0  0
   -1.9850    2.1302   -1.4566 O   0  0  0  0  0
   -3.4657    2.9537    1.1503 O   0  0  0  0  0
   -3.2262   -2.8509   -0.9671 S   0  0  0  0  0
    1.4329    0.4360    2.2959 S   0  0  0  0  0
    7.0815   -2.6361    0.1787 S   0  0  0  0  0
  1 37  1  0  0  0
  2 13  1  0  0  0
  2 21  1  0  0  0
  3 27  1  0  0  0
  3 37  1  0  0  0
  4 10  1  0  0  0
  5 14  1  0  0  0
  5 25  1  0  0  0
  6  7  1  0  0  0
  6 22  1  0  0  0
  7 26  1  0  0  0
  8 25  1  0  0  0
  9 26  1  0  0  0
  9 39  1  0  0  0
 11 39  1  0  0  0
 13 15  1  0  0  0
 14 30  1  0  0  0
 15 28  1  0  0  0
 16  4  1  0  0  0
 16 38  1  0  0  0
 17  8  1  0  0  0
 17 18  1  0  0  0
 17 28  1  0  0  0
 18 25  1  0  0  0
 18 38  1  0  0  0
 19 36  1  0  0  0
 20 12  1  0  0  0
 20 26  1  0  0  0
 22 23  1  0  0  0
 24 36  1  0  0  0
  1  2  2  0  0  0
  3 21  2  0  0  0
  4  5  2  0  0  0
  6 29  2  0  0  0
  7 31  2  0  0  0
  8 32  2  0  0  0
  9 23  2  0  0  0
 10 11  2  0  0  0
 12 33  2  0  0  0
 13 24  2  0  0  0
 14 34  2  0  0  0
 15 35  2  0  0  0
M  CHG  2  29  -1  30  -1
M  END
> <rmsd>
0.0591160916

$$$$
ZINC72283740


 39 42  0  0  0  0  0  0  0  0999 V2000
   -2.3654   -1.1029   -1.0064 C   0  0  0  0  0
   -3.2369   -0.4537   -0.1572 C   0  0  0  0  0
   -4.1835   -2.4320   -0.1517 C   0  0  0  0  0
    3.7626    0.0060    0.7594 C   0  0  0  0  0
    3.1717    0.4928   -0.3569 C   0  0  0  0  0
    9.6148    0.5944   -3.1748 C   0  0  0  0  0
    9.3121   -0.8673   -3.4742 C   0  0  0  0  0
    1.1313    1.8053   -1.0778 C   0  0  0  0  0
    8.2611   -0.7920   -1.3268 C   0  0  0  0  0
    4.9519   -0.8246    0.7478 C   0  0  0  0  0
    5.9735   -0.6035   -0.0768 C   0  0  0  0  0
    6.8030   -3.0126   -2.9797 C   0  0  0  0  0
   -3.0988    0.9745    0.2356 C   0  0  0  0  0
    3.6529    0.0786   -1.7464 C   0  0  0  0  0
   -1.9472    1.7731   -0.3160 C   0  0  0  0  0
    3.2439    0.2548    2.1735 C   0  0  0  0  0
    0.4032    2.3890    0.1683 C   0  0  0  0  0
    1.6832    2.0002    0.9420 C   0  0  0  0  0
   -4.6112    3.3969    2.1791 C   0  0  0  0  0
    8.2648   -2.9188   -2.6467 C   0  0  0  0  0
   -4.2803   -1.2141    0.3336 N   0  0  0  0  0
    9.2400    1.1614   -2.0751 N   0  0  0  0  0
    8.5396    0.4505   -1.1156 N   0  0  0  0  0
   -3.9504    1.5277    1.0457 N   0  0  0  0  0
    2.0998    1.3230   -0.2707 N   0  0  0  0  0
    8.6080   -1.5058   -2.4605 N   0  0  0  0  0
   -5.0528   -3.4392    0.1286 N   0  0  0  0  0
   -0.8458    1.7006    0.4904 N   0  0  0  0  0
   10.2423    1.0565   -4.1423 O   0  0  0  0  0
    3.5803   -1.1552   -1.9777 O   0  0  0  0  0
    9.6760   -1.3851   -4.5240 O   0  0  0  0  0
    0.9087    1.7234   -2.2629 O   0  0  0  0  0
    6.2370   -4.0850   -3.1762 O   0  0  0  0  0
    4.0540    1.0292   -2.4648 O   0  0  0  0  0
   -2.1100    2.3663   -1.3702 O   0  0  0  0  0
   -3.6372    2.8719    1.2903 O   0  0  0  0  0
   -2.8618   -2.7326   -1.2042 S   0  0  0  0  0
    1.4917    0.7698    2.2509 S   0  0  0  0  0
    7.3883   -1.5986   -0.0834 S   0  0  0  0  0
  1 37  1  0  0  0
  2 13  1  0  0  0
  2 21  1  0  0  0
  3 27  1  0  0  0
  3 37  1  0  0  0
  4 10  1  0  0  0
  5 14  1  0  0  0
  5 25  1  0  0  0
  6  7  1  0  0  0
  6 22  1  0  0  0
  7 26  1  0  0  0
  8 25  1  0  0  0
  9 26  1  0  0  0
  9 39  1  0  0  0
 11 39  1  0  0  0
 13 15  1  0  0  0
 14 30  1  0  0  0
 15 28  1  0  0  0
 16  4  1  0  0  0
 16 38  1  0  0  0
 17  8  1  0  0  0
 17 18  1  0  0  0
 17 28  1  0  0  0
 18 25  1  0  0  0
 18 38  1  0  0  0
 19 36  1  0  0  0
 20 12  1  0  0  0
 20 26  1  0  0  0
 22 23  1  0  0  0
 24 36  1  0  0  0
  1  2  2  0  0  0
  3 21  2  0  0  0
  4  5  2  0  0  0
  6 29  2  0  0  0
  7 31  2  0  0  0
  8 32  2  0  0  0
  9 23  2  0  0  0
 10 11  2  0  0  0
 12 33  2  0  0  0
 13 24  2  0  0  0
 14 34  2  0  0  0
 15 35  2  0  0  0
M  CHG  2  29  -1  30  -1
M  END
> <rmsd>
0.310097992

$$$$
ZINC72283740


 39 42  0  0  0  0  0  0  0  0999 V2000
   -4.4862   -1.1677    0.4508 C   0  0  0  0  0
   -3.3977   -0.4825   -0.0467 C   0  0  0  0  0
   -3.0011   -2.4375   -0.9579 C   0  0  0  0  0
    3.6140   -0.6355    0.8793 C   0  0  0  0  0
    3.0724   -0.1783   -0.2739 C   0  0  0  0  0
    9.4083   -1.1451   -3.2237 C   0  0  0  0  0
    9.7310   -0.5355   -1.8665 C   0  0  0  0  0
    1.1685    1.2682   -1.1036 C   0  0  0  0  0
    8.0125   -2.0184   -1.1122 C   0  0  0  0  0
    4.7171   -1.5759    0.9373 C   0  0  0  0  0
    5.7547   -1.5168    0.1053 C   0  0  0  0  0
    9.9478   -1.5598    1.3031 C   0  0  0  0  0
   -3.1214    0.9510    0.2399 C   0  0  0  0  0
    3.5102   -0.7396   -1.6256 C   0  0  0  0  0
   -1.8981    1.5910   -0.3619 C   0  0  0  0  0
    3.1228   -0.2330    2.2677 C   0  0  0  0  0
    0.5012    2.0109    0.0909 C   0  0  0  0  0
    1.7380    1.5587    0.8997 C   0  0  0  0  0
   -4.3904    3.6464    1.9883 C   0  0  0  0  0
    9.1874   -0.5280    0.5199 C   0  0  0  0  0
   -2.5447   -1.2090   -0.8543 N   0  0  0  0  0
    8.4980   -2.0515   -3.3699 N   0  0  0  0  0
    7.7727   -2.5075   -2.2823 N   0  0  0  0  0
   -3.9148    1.6428    1.0011 N   0  0  0  0  0
    2.0861    0.7559   -0.2566 N   0  0  0  0  0
    8.9582   -1.0478   -0.8315 N   0  0  0  0  0
   -2.3999   -3.4190   -1.6817 N   0  0  0  0  0
   -0.8084    1.4725    0.4550 N   0  0  0  0  0
   10.1541   -0.6144   -4.0637 O   0  0  0  0  0
    3.3181   -1.9742   -1.7651 O   0  0  0  0  0
   10.5991    0.3221   -1.7501 O   0  0  0  0  0
    0.9382    1.1202   -2.2808 O   0  0  0  0  0
   10.2677   -1.3953    2.4775 O   0  0  0  0  0
    4.0013    0.1117   -2.4099 O   0  0  0  0  0
   -2.0033    2.1170   -1.4582 O   0  0  0  0  0
   -3.4725    2.9649    1.1473 O   0  0  0  0  0
   -4.4515   -2.7880   -0.1105 S   0  0  0  0  0
    1.4289    0.4535    2.2951 S   0  0  0  0  0
    7.0663   -2.6419    0.1819 S   0  0  0  0  0
  1 37  1  0  0  0
  2 13  1  0  0  0
  2 21  1  0  0  0
  3 27  1  0  0  0
  3 37  1  0  0  0
  4 10  1  0  0  0
  5 14  1  0  0  0
  5 25  1  0  0  0
  6  7  1  0  0  0
  6 22  1  0  0  0
  7 26  1  0  0  0
  8 25  1  0  0  0
  9 26  1  0  0  0
  9 39  1  0  0  0
 11 39  1  0  0  0
 13 15  1  0  0  0
 14 30  1  0  0  0
 15 28  1  0  0  0
 16  4  1  0  0  0
 16 38  1  0  0  0
 17  8  1  0  0  0
 17 18  1  0  0  0
 17 28  1  0  0  0
 18 25  1  0  0  0
 18 38  1  0  0  0
 19 36  1  0  0  0
 20 12  1  0  0  0
 20 26  1  0  0  0
 22 23  1  0  0  0
 24 36  1  0  0  0
  1  2  2  0  0  0
  3 21  2  0  0  0
  4  5  2  0  0  0
  6 29  2  0  0  0
  7 31  2  0  0  0
  8 32  2  0  0  0
  9 23  2  0  0  0
 10 11  2  0  0  0
 12 33  2  0  0  0
 13 24  2  0  0  0
 14 34  2  0  0  0
 15 35  2  0  0  0
M  CHG  2  29  -1  30  -1
M  END
> <rmsd>
0.101286978

$$$$
ZINC72283740


 39 42  0  0  0  0  0  0  0  0999 V2000
   -4.2626   -1.2759    0.3280 C   0  0  0  0  0
   -3.2509   -0.4576   -0.1290 C   0  0  0  0  0
   -2.6776   -2.3021   -1.1678 C   0  0  0  0  0
    3.7527    0.0107    0.7514 C   0  0  0  0  0
    3.1567    0.4867   -0.3669 C   0  0  0  0  0
    9.5232    0.3315   -3.4040 C   0  0  0  0  0
    9.8007    0.8806   -2.0115 C   0  0  0  0  0
    1.1131    1.7923   -1.0913 C   0  0  0  0  0
    8.2417   -0.8075   -1.3473 C   0  0  0  0  0
    4.9420   -0.8199    0.7424 C   0  0  0  0  0
    5.9598   -0.6069   -0.0889 C   0  0  0  0  0
   10.1505   -0.3202    1.0834 C   0  0  0  0  0
   -3.1111    0.9743    0.2493 C   0  0  0  0  0
    3.6316    0.0590   -1.7545 C   0  0  0  0  0
   -1.9620    1.7675   -0.3153 C   0  0  0  0  0
    3.2404    0.2733    2.1653 C   0  0  0  0  0
    0.3906    2.3880    0.1524 C   0  0  0  0  0
    1.6741    2.0068    0.9240 C   0  0  0  0  0
   -4.6146    3.4155    2.1760 C   0  0  0  0  0
    9.2854    0.6814    0.3729 C   0  0  0  0  0
   -2.3408   -1.0444   -0.9865 N   0  0  0  0  0
    8.7030   -0.6476   -3.6047 N   0  0  0  0  0
    8.0373   -1.2411   -2.5457 N   0  0  0  0  0
   -3.9590    1.5354    1.0578 N   0  0  0  0  0
    2.0852    1.3178   -0.2839 N   0  0  0  0  0
    9.0924    0.2301   -1.0085 N   0  0  0  0  0
   -1.9926   -3.1719   -1.9570 N   0  0  0  0  0
   -0.8569    1.7028    0.4868 N   0  0  0  0  0
   10.2050    0.9851   -4.2112 O   0  0  0  0  0
    3.5580   -1.1769   -1.9734 O   0  0  0  0  0
   10.5831    1.8091   -1.8435 O   0  0  0  0  0
    0.8851    1.6988   -2.2745 O   0  0  0  0  0
   10.4660   -0.2015    2.2645 O   0  0  0  0  0
    4.0295    1.0027   -2.4839 O   0  0  0  0  0
   -2.1295    2.3504   -1.3744 O   0  0  0  0  0
   -3.6447    2.8819    1.2879 O   0  0  0  0  0
   -4.0780   -2.8456   -0.3381 S   0  0  0  0  0
    1.4886    0.7891    2.2457 S   0  0  0  0  0
    7.3745   -1.6020   -0.0922 S   0  0  0  0  0
  1 37  1  0  0  0
  2 13  1  0  0  0
  2 21  1  0  0  0
  3 27  1  0  0  0
  3 37  1  0  0  0
  4 10  1  0  0  0
  5 14  1  0  0  0
  5 25  1  0  0  0
  6  7  1  0  0  0
  6 22  1  0  0  0
  7 26  1  0  0  0
  8 25  1  0  0  0
  9 26  1  0  0  0
  9 39  1  0  0  0
 11 39  1  0  0  0
 13 15  1  0  0  0
 14 30  1  0  0  0
 15 28  1  0  0  0
 16  4  1  0  0  0
 16 38  1  0  0  0
 17  8  1  0  0  0
 17 18  1  0  0  0
 17 28  1  0  0  0
 18 25  1  0  0  0
 18 38  1  0  0  0
 19 36  1  0  0  0
 20 12  1  0  0  0
 20 26  1  0  0  0
 22 23  1  0  0  0
 24 36  1  0  0  0
  1  2  2  0  0  0
  3 21  2  0  0  0
  4  5  2  0  0  0
  6 29  2  0  0  0
  7 31  2  0  0  0
  8 32  2  0  0  0
  9 23  2  0  0  0
 10 11  2  0  0  0
 12 33  2  0  0  0
 13 24  2  0  0  0
 14 34  2  0  0  0
 15 35  2  0  0  0
M  CHG  2  29  -1  30  -1
M  END
> <rmsd>
0.349377424

$$$$
ZINC72283740


 39 42  0  0  0  0  0  0  0  0999 V2000
   -2.3654   -1.1026   -1.0065 C   0  0  0  0  0
   -3.2369   -0.4535   -0.1572 C   0  0  0  0  0
   -4.1836   -2.4317   -0.1520 C   0  0  0  0  0
    3.7627    0.0056    0.7596 C   0  0  0  0  0
    3.1718    0.4926   -0.3566 C   0  0  0  0  0
    9.5520    0.3667   -3.3661 C   0  0  0  0  0
    9.8232    0.9021   -1.9670 C   0  0  0  0  0
    1.1316    1.8054   -1.0775 C   0  0  0  0  0
    8.2612   -0.7924   -1.3265 C   0  0  0  0  0
    4.9519   -0.8250    0.7479 C   0  0  0  0  0
    5.9735   -0.6039   -0.0766 C   0  0  0  0  0
   10.1589   -0.3290    1.1175 C   0  0  0  0  0
   -3.0987    0.9747    0.2358 C   0  0  0  0  0
    3.6530    0.0785   -1.7462 C   0  0  0  0  0
   -1.9470    1.7733   -0.3158 C   0  0  0  0  0
    3.2440    0.2543    2.1737 C   0  0  0  0  0
    0.4034    2.3890    0.1687 C   0  0  0  0  0
    1.6834    2.0000    0.9423 C   0  0  0  0  0
   -4.6109    3.3970    2.1795 C   0  0  0  0  0
    9.2970    0.6795    0.4129 C   0  0  0  0  0
   -4.2803   -1.2139    0.3335 N   0  0  0  0  0
    8.7327   -0.6102   -3.5801 N   0  0  0  0  0
    8.0622   -1.2141   -2.5300 N   0  0  0  0  0
   -3.9503    1.5278    1.0459 N   0  0  0  0  0
    2.0999    1.3229   -0.2704 N   0  0  0  0  0
    9.1104    0.2418   -0.9736 N   0  0  0  0  0
   -5.0529   -3.4389    0.1282 N   0  0  0  0  0
   -0.8456    1.7006    0.4907 N   0  0  0  0  0
   10.2375    1.0282   -4.1637 O   0  0  0  0  0
    3.5804   -1.1551   -1.9776 O   0  0  0  0  0
   10.6049    1.8288   -1.7863 O   0  0  0  0  0
    0.9089    1.7236   -2.2625 O   0  0  0  0  0
   10.4690   -0.2220    2.3011 O   0  0  0  0  0
    4.0543    1.0293   -2.4645 O   0  0  0  0  0
   -2.1097    2.3666   -1.3699 O   0  0  0  0  0
   -3.6370    2.8720    1.2907 O   0  0  0  0  0
   -2.8619   -2.7323   -1.2045 S   0  0  0  0  0
    1.4918    0.7694    2.2512 S   0  0  0  0  0
    7.3882   -1.5991   -0.0832 S   0  0  0  0  0
  1 37  1  0  0  0
  2 13  1  0  0  0
  2 21  1  0  0  0
  3 27  1  0  0  0
  3 37  1  0  0  0
  4 10  1  0  0  0
  5 14  1  0  0  0
  5 25  1  0  0  0
  6  7  1  0  0  0
  6 22  1  0  0  0
  7 26  1  0  0  0
  8 25  1  0  0  0
  9 26  1  0  0  0
  9 39  1  0  0  0
 11 39  1  0  0  0
 13 15  1  0  0  0
 14 30  1  0  0  0
 15 28  1  0  0  0
 16  4  1  0  0  0
 16 38  1  0  0  0
 17  8  1  0  0  0
 17 18  1  0  0  0
 17 28  1  0  0  0
 18 25  1  0  0  0
 18 38  1  0  0  0
 19 36  1  0  0  0
 20 12  1  0  0  0
 20 26  1  0  0  0
 22 23  1  0  0  0
 24 36  1  0  0  0
  1  2  2  0  0  0
  3 21  2  0  0  0
  4  5  2  0  0  0
  6 29  2  0  0  0
  7 31  2  0  0  0
  8 32  2  0  0  0
  9 23  2  0  0  0
 10 11  2  0  0  0
 12 33  2  0  0  0
 13 24  2  0  0  0
 14 34  2  0  0  0
 15 35  2  0  0  0
M  CHG  2  29  -1  30  -1
M  END
> <rmsd>
0.310321987

$$$$
ZINC72283740


 39 42  0  0  0  0  0  0  0  0999 V2000
   -2.5754   -1.2667   -0.8709 C   0  0  0  0  0
   -3.3831   -0.4825   -0.0742 C   0  0  0  0  0
   -4.5164   -2.3559    0.0502 C   0  0  0  0  0
    3.6248   -0.6391    0.8798 C   0  0  0  0  0
    3.0876   -0.1718   -0.2715 C   0  0  0  0  0
    9.4365   -1.1075   -3.2034 C   0  0  0  0  0
    9.7531   -0.5100   -1.8394 C   0  0  0  0  0
    1.1862    1.2808   -1.0961 C   0  0  0  0  0
    8.0325   -2.0009   -1.1057 C   0  0  0  0  0
    4.7283   -1.5792    0.9338 C   0  0  0  0  0
    5.7693   -1.5118    0.1067 C   0  0  0  0  0
    9.9574   -1.5628    1.3216 C   0  0  0  0  0
   -3.1091    0.9485    0.2265 C   0  0  0  0  0
    3.5315   -0.7205   -1.6265 C   0  0  0  0  0
   -1.8838    1.5948   -0.3643 C   0  0  0  0  0
    3.1275   -0.2495    2.2696 C   0  0  0  0  0
    0.5134    2.0122    0.1022 C   0  0  0  0  0
    1.7471    1.5536    0.9121 C   0  0  0  0  0
   -4.3873    3.6271    1.9939 C   0  0  0  0  0
    9.1995   -0.5245    0.5446 C   0  0  0  0  0
   -4.4969   -1.1052    0.4545 N   0  0  0  0  0
    8.5275   -2.0131   -3.3616 N   0  0  0  0  0
    7.7980   -2.4795   -2.2812 N   0  0  0  0  0
   -3.9062    1.6329    0.9906 N   0  0  0  0  0
    2.1006    0.7615   -0.2499 N   0  0  0  0  0
    8.9764   -1.0322   -0.8124 N   0  0  0  0  0
   -5.4800   -3.2543    0.3866 N   0  0  0  0  0
   -0.7974    1.4696    0.4560 N   0  0  0  0  0
   10.1855   -0.5687   -4.0355 O   0  0  0  0  0
    3.3409   -1.9540   -1.7779 O   0  0  0  0  0
   10.6200    0.3471   -1.7116 O   0  0  0  0  0
    0.9609    1.1433   -2.2755 O   0  0  0  0  0
   10.2723   -1.4087    2.4988 O   0  0  0  0  0
    4.0252    0.1381   -2.4009 O   0  0  0  0  0
   -1.9847    2.1305   -1.4563 O   0  0  0  0  0
   -3.4655    2.9538    1.1507 O   0  0  0  0  0
   -3.2262   -2.8505   -0.9675 S   0  0  0  0  0
    1.4330    0.4356    2.2961 S   0  0  0  0  0
    7.0814   -2.6366    0.1787 S   0  0  0  0  0
  1 37  1  0  0  0
  2 13  1  0  0  0
  2 21  1  0  0  0
  3 27  1  0  0  0
  3 37  1  0  0  0
  4 10  1  0  0  0
  5 14  1  0  0  0
  5 25  1  0  0  0
  6  7  1  0  0  0
  6 22  1  0  0  0
  7 26  1  0  0  0
  8 25  1  0  0  0
  9 26  1  0  0  0
  9 39  1  0  0  0
 11 39  1  0  0  0
 13 15  1  0  0  0
 14 30  1  0  0  0
 15 28  1  0  0  0
 16  4  1  0  0  0
 16 38  1  0  0  0
 17  8  1  0  0  0
 17 18  1  0  0  0
 17 28  1  0  0  0
 18 25  1  0  0  0
 18 38  1  0  0  0
 19 36  1  0  0  0
 20 12  1  0  0  0
 20 26  1  0  0  0
 22 23  1  0  0  0
 24 36  1  0  0  0
  1  2  2  0  0  0
  3 21  2  0  0  0
  4  5  2  0  0  0
  6 29  2  0  0  0
  7 31  2  0  0  0
  8 32  2  0  0  0
  9 23  2  0  0  0
 10 11  2  0  0  0
 12 33  2  0  0  0
 13 24  2  0  0  0
 14 34  2  0  0  0
 15 35  2  0  0  0
M  CHG  2  29  -1  30  -1
M  END
> <rmsd>
0.059234716

$$$$
ZINC95101078


 48 52  0  0  0  0  0  0  0  0999 V2000
    1.0322   -4.7304   -1.7323 C   0  0  0  0  0
    8.5521    1.9073   -0.8601 C   0  0  0  0  0
    0.1053   -4.3502   -0.7619 C   0  0  0  0  0
    7.5135    2.2551   -1.7238 C   0  0  0  0  0
    3.3324    8.3631   -1.2186 C   0  0  0  0  0
   -3.3419   -2.1088   -1.2064 C   0  0  0  0  0
    3.7308    7.7120   -2.3859 C   0  0  0  0  0
   -4.2577   -2.1336   -0.1546 C   0  0  0  0  0
    2.2566   -4.0685   -1.8246 C   0  0  0  0  0
    8.4468    2.1816    0.5036 C   0  0  0  0  0
    0.4025   -3.3080    0.1162 C   0  0  0  0  0
    6.3695    2.8771   -1.2238 C   0  0  0  0  0
    2.4320    7.7475   -0.3491 C   0  0  0  0  0
   -2.5897   -0.9596   -1.4495 C   0  0  0  0  0
    3.2287    6.4452   -2.6840 C   0  0  0  0  0
   -4.4213   -1.0090    0.6542 C   0  0  0  0  0
    2.5539   -3.0262   -0.9465 C   0  0  0  0  0
    7.3028    2.8036    1.0035 C   0  0  0  0  0
    1.6269   -2.6460    0.0239 C   0  0  0  0  0
    6.2641    3.1515    0.1398 C   0  0  0  0  0
    1.9299    6.4807   -0.6471 C   0  0  0  0  0
   -2.7533    0.1651   -0.6406 C   0  0  0  0  0
    2.3282    5.8295   -1.8145 C   0  0  0  0  0
   -3.6691    0.1403    0.4112 C   0  0  0  0  0
    3.8535   -2.3400   -1.0623 C   0  0  0  0  0
    7.2127    3.0845    2.4478 C   0  0  0  0  0
    2.9073    0.6715    1.1602 C   0  0  0  0  0
    0.9345    0.2921   -0.2922 C   0  0  0  0  0
    2.4253    4.7922    1.9022 C   0  0  0  0  0
    0.3585    3.6671    1.2097 C   0  0  0  0  0
    3.4047    1.9243    0.4268 C   0  0  0  0  0
   -0.1761    0.6440    0.7088 C   0  0  0  0  0
    3.2278    3.5803    2.4122 C   0  0  0  0  0
   -0.3703    3.1228   -0.0256 C   0  0  0  0  0
    1.9210   -1.5271    0.9809 C   0  0  0  0  0
    0.9613    5.8336    0.3002 C   0  0  0  0  0
    5.0231    3.8221    0.6509 C   0  0  0  0  0
   -1.9359    1.3924   -0.9170 C   0  0  0  0  0
    2.1732   -0.2640    0.2859 N   0  0  0  0  0
    1.4658    4.5561    0.8127 N   0  0  0  0  0
    4.1014    2.8801    1.3829 N   0  0  0  0  0
   -1.0607    1.7936    0.2445 N   0  0  0  0  0
    3.9436   -1.3145   -1.8342 O   0  0  0  0  0
    7.6520    4.2118    2.8861 O   0  0  0  0  0
    4.8521   -2.7909   -0.3875 O   0  0  0  0  0
    6.6982    2.1925    3.2195 O   0  0  0  0  0
    1.8468    4.5923   -2.1207 O   0  0  0  0  0
   -3.8417    1.2304    1.2102 O   0  0  0  0  0
  1  3  1  0  0  0
  2  4  1  0  0  0
  5  7  1  0  0  0
  6  8  1  0  0  0
  9 17  1  0  0  0
 10 18  1  0  0  0
 11 19  1  0  0  0
 12 20  1  0  0  0
 13 21  1  0  0  0
 14 22  1  0  0  0
 15 23  1  0  0  0
 16 24  1  0  0  0
 17 25  1  0  0  0
 18 26  1  0  0  0
 23 47  1  0  0  0
 24 48  1  0  0  0
 25 43  1  0  0  0
 26 44  1  0  0  0
 27 31  1  0  0  0
 27 39  1  0  0  0
 28 32  1  0  0  0
 28 39  1  0  0  0
 29 33  1  0  0  0
 29 40  1  0  0  0
 30 34  1  0  0  0
 30 40  1  0  0  0
 31 41  1  0  0  0
 32 42  1  0  0  0
 33 41  1  0  0  0
 34 42  1  0  0  0
 35 19  1  0  0  0
 35 39  1  0  0  0
 36 21  1  0  0  0
 36 40  1  0  0  0
 37 20  1  0  0  0
 37 41  1  0  0  0
 38 22  1  0  0  0
 38 42  1  0  0  0
  1  9  2  0  0  0
  2 10  2  0  0  0
  3 11  2  0  0  0
  4 12  2  0  0  0
  5 13  2  0  0  0
  6 14  2  0  0  0
  7 15  2  0  0  0
  8 16  2  0  0  0
 17 19  2  0  0  0
 18 20  2  0  0  0
 21 23  2  0  0  0
 22 24  2  0  0  0
 25 45  2  0  0  0
 26 46  2  0  0  0
M  CHG  4  41   1  42   1  43  -1  44  -1
M  END
> <rmsd>
0.575514376

$$$$
ZINC95101078


 48 52  0  0  0  0  0  0  0  0999 V2000
    1.0320   -4.7298   -1.7327 C   0  0  0  0  0
    8.5521    1.9076   -0.8597 C   0  0  0  0  0
    0.1051   -4.3497   -0.7622 C   0  0  0  0  0
    7.5135    2.2555   -1.7233 C   0  0  0  0  0
    3.2070    6.3891   -2.6954 C   0  0  0  0  0
   -3.3420   -2.1081   -1.2067 C   0  0  0  0  0
    3.7284    7.6548   -2.4273 C   0  0  0  0  0
   -4.2578   -2.1329   -0.1549 C   0  0  0  0  0
    2.2564   -4.0680   -1.8249 C   0  0  0  0  0
    8.4468    2.1817    0.5040 C   0  0  0  0  0
    0.4023   -3.3075    0.1160 C   0  0  0  0  0
    6.3695    2.8775   -1.2233 C   0  0  0  0  0
    2.3078    5.8023   -1.8049 C   0  0  0  0  0
   -2.5898   -0.9589   -1.4496 C   0  0  0  0  0
    3.3506    8.3337   -1.2688 C   0  0  0  0  0
   -4.4214   -1.0084    0.6540 C   0  0  0  0  0
    2.5537   -3.0257   -0.9467 C   0  0  0  0  0
    7.3028    2.8037    1.0039 C   0  0  0  0  0
    1.6267   -2.6456    0.0237 C   0  0  0  0  0
    6.2641    3.1517    0.1403 C   0  0  0  0  0
    1.9301    6.4811   -0.6464 C   0  0  0  0  0
   -2.7534    0.1657   -0.6406 C   0  0  0  0  0
    2.4515    7.7468   -0.3783 C   0  0  0  0  0
   -3.6692    0.1408    0.4111 C   0  0  0  0  0
    3.8534   -2.3396   -1.0623 C   0  0  0  0  0
    7.2126    3.0845    2.4483 C   0  0  0  0  0
    2.9072    0.6718    1.1604 C   0  0  0  0  0
    0.9345    0.2925   -0.2922 C   0  0  0  0  0
    2.4253    4.7924    1.9027 C   0  0  0  0  0
    0.3585    3.6674    1.2101 C   0  0  0  0  0
    3.4046    1.9246    0.4271 C   0  0  0  0  0
   -0.1762    0.6444    0.7088 C   0  0  0  0  0
    3.2278    3.5805    2.4126 C   0  0  0  0  0
   -0.3703    3.1233   -0.0253 C   0  0  0  0  0
    1.9208   -1.5268    0.9808 C   0  0  0  0  0
    0.9615    5.8340    0.3008 C   0  0  0  0  0
    5.0232    3.8223    0.6514 C   0  0  0  0  0
   -1.9359    1.3930   -0.9169 C   0  0  0  0  0
    2.1731   -0.2636    0.2859 N   0  0  0  0  0
    1.4659    4.5565    0.8132 N   0  0  0  0  0
    4.1014    2.8803    1.3833 N   0  0  0  0  0
   -1.0607    1.7941    0.2446 N   0  0  0  0  0
    3.9435   -1.3140   -1.8342 O   0  0  0  0  0
    7.6520    4.2117    2.8867 O   0  0  0  0  0
    4.8519   -2.7906   -0.3876 O   0  0  0  0  0
    6.6981    2.1925    3.2199 O   0  0  0  0  0
    2.0936    8.4231    0.7490 O   0  0  0  0  0
   -3.8418    1.2309    1.2102 O   0  0  0  0  0
  1  3  1  0  0  0
  2  4  1  0  0  0
  5  7  1  0  0  0
  6  8  1  0  0  0
  9 17  1  0  0  0
 10 18  1  0  0  0
 11 19  1  0  0  0
 12 20  1  0  0  0
 13 21  1  0  0  0
 14 22  1  0  0  0
 15 23  1  0  0  0
 16 24  1  0  0  0
 17 25  1  0  0  0
 18 26  1  0  0  0
 23 47  1  0  0  0
 24 48  1  0  0  0
 25 43  1  0  0  0
 26 44  1  0  0  0
 27 31  1  0  0  0
 27 39  1  0  0  0
 28 32  1  0  0  0
 28 39  1  0  0  0
 29 33  1  0  0  0
 29 40  1  0  0  0
 30 34  1  0  0  0
 30 40  1  0  0  0
 31 41  1  0  0  0
 32 42  1  0  0  0
 33 41  1  0  0  0
 34 42  1  0  0  0
 35 19  1  0  0  0
 35 39  1  0  0  0
 36 21  1  0  0  0
 36 40  1  0  0  0
 37 20  1  0  0  0
 37 41  1  0  0  0
 38 22  1  0  0  0
 38 42  1  0  0  0
  1  9  2  0  0  0
  2 10  2  0  0  0
  3 11  2  0  0  0
  4 12  2  0  0  0
  5 13  2  0  0  0
  6 14  2  0  0  0
  7 15  2  0  0  0
  8 16  2  0  0  0
 17 19  2  0  0  0
 18 20  2  0  0  0
 21 23  2  0  0  0
 22 24  2  0  0  0
 25 45  2  0  0  0
 26 46  2  0  0  0
M  CHG  4  41   1  42   1  43  -1  44  -1
M  END
> <rmsd>
0.575736701

$$$$
ZINC95101146


 44 48  0  0  0  0  0  0  0  0999 V2000
    0.5609   -3.7978   -3.7882 C   0  0  0  0  0
   -1.0917   -5.4729   -3.2405 C   0  0  0  0  0
    1.2531   -4.7323   -4.5582 C   0  0  0  0  0
   -0.3995   -6.4076   -4.0105 C   0  0  0  0  0
   -4.5023   -1.1626    0.4593 C   0  0  0  0  0
   -0.6115   -4.1680   -3.1293 C   0  0  0  0  0
    0.7730   -6.0372   -4.6694 C   0  0  0  0  0
   -3.4124   -0.4818   -0.0413 C   0  0  0  0  0
   -3.0246   -2.4393   -0.9509 C   0  0  0  0  0
    3.1040   -0.1627   -0.2849 C   0  0  0  0  0
    3.6712   -0.6143    0.8571 C   0  0  0  0  0
    8.1085   -5.4236    0.9343 C   0  0  0  0  0
    7.4009   -5.0228    2.2395 C   0  0  0  0  0
    1.1695    1.2428   -1.1040 C   0  0  0  0  0
    5.7534   -4.1090    0.9811 C   0  0  0  0  0
   -1.3426   -3.1814   -2.3164 C   0  0  0  0  0
   -3.1294    0.9509    0.2425 C   0  0  0  0  0
    3.5416   -0.7313   -1.6295 C   0  0  0  0  0
   -1.9047    1.5847   -0.3631 C   0  0  0  0  0
    3.1847   -0.2257    2.2497 C   0  0  0  0  0
    0.4974    1.9951    0.0836 C   0  0  0  0  0
    1.7268    1.5317    0.9062 C   0  0  0  0  0
    5.8642   -4.1889   -1.5316 C   0  0  0  0  0
   -4.3827    3.6545    1.9894 C   0  0  0  0  0
    4.8425   -1.5654    0.9060 C   0  0  0  0  0
   -2.5637   -1.2123   -0.8497 N   0  0  0  0  0
    7.5763   -5.1338   -0.2122 N   0  0  0  0  0
    6.2004   -4.3512    2.1740 N   0  0  0  0  0
   -2.4555   -3.4442   -1.6634 N   0  0  0  0  0
   -3.9180    1.6473    1.0043 N   0  0  0  0  0
    2.1004    0.7515   -0.2590 N   0  0  0  0  0
    6.3841   -4.4696   -0.1995 N   0  0  0  0  0
   -0.8092    1.4647    0.4503 N   0  0  0  0  0
    9.1649   -6.0099    1.2202 O   0  0  0  0  0
    2.8876   -1.7360   -2.0132 O   0  0  0  0  0
    7.9169   -5.3075    3.3153 O   0  0  0  0  0
    0.9377    1.0820   -2.2795 O   0  0  0  0  0
    4.4974   -0.1186   -2.1732 O   0  0  0  0  0
   -2.0101    2.1094   -1.4601 O   0  0  0  0  0
    1.4483   -6.9494   -5.4205 O   0  0  0  0  0
   -3.4697    2.9676    1.1475 O   0  0  0  0  0
   -4.4746   -2.7837   -0.1001 S   0  0  0  0  0
    1.4730    0.4040    2.2982 S   0  0  0  0  0
    4.2348   -3.2601    0.9256 S   0  0  0  0  0
  1  6  1  0  0  0
  2  4  1  0  0  0
  3  7  1  0  0  0
  5 42  1  0  0  0
  6 16  1  0  0  0
  7 40  1  0  0  0
  8 17  1  0  0  0
  8 26  1  0  0  0
  9 29  1  0  0  0
  9 42  1  0  0  0
 10 18  1  0  0  0
 10 31  1  0  0  0
 12 13  1  0  0  0
 12 27  1  0  0  0
 13 28  1  0  0  0
 14 31  1  0  0  0
 15 32  1  0  0  0
 15 44  1  0  0  0
 17 19  1  0  0  0
 18 35  1  0  0  0
 19 33  1  0  0  0
 20 11  1  0  0  0
 20 43  1  0  0  0
 21 14  1  0  0  0
 21 22  1  0  0  0
 21 33  1  0  0  0
 22 31  1  0  0  0
 22 43  1  0  0  0
 23 32  1  0  0  0
 24 41  1  0  0  0
 25 11  1  0  0  0
 25 44  1  0  0  0
 30 41  1  0  0  0
 32 27  1  0  0  0
  1  3  2  0  0  0
  2  6  2  0  0  0
  4  7  2  0  0  0
  5  8  2  0  0  0
  9 26  2  0  0  0
 10 11  2  0  0  0
 12 34  2  0  0  0
 13 36  2  0  0  0
 14 37  2  0  0  0
 15 28  2  0  0  0
 16 29  2  0  0  0
 17 30  2  0  0  0
 18 38  2  0  0  0
 19 39  2  0  0  0
M  CHG  2  34  -1  35  -1
M  END
> <rmsd>
0.090008162

$$$$
ZINC95101146


 44 48  0  0  0  0  0  0  0  0999 V2000
    1.1926   -3.2630   -3.8611 C   0  0  0  0  0
   -0.3157   -5.1030   -3.4408 C   0  0  0  0  0
    1.9923   -4.0970   -4.6424 C   0  0  0  0  0
    0.4841   -5.9370   -4.2220 C   0  0  0  0  0
   -4.2259   -1.2825    0.3028 C   0  0  0  0  0
    0.0385   -3.7659   -3.2603 C   0  0  0  0  0
    1.6381   -5.4340   -4.8229 C   0  0  0  0  0
   -3.1877   -0.4849   -0.1306 C   0  0  0  0  0
   -2.5923   -2.3583   -1.1030 C   0  0  0  0  0
    3.2762    0.4333   -0.1262 C   0  0  0  0  0
    3.8454   -0.0139    1.0166 C   0  0  0  0  0
    8.7014   -4.4004    1.0617 C   0  0  0  0  0
    7.9183   -4.1219    2.3556 C   0  0  0  0  0
    1.2481    1.6918   -0.9577 C   0  0  0  0  0
    6.2351   -3.3077    1.0761 C   0  0  0  0  0
   -0.8060   -2.8855   -2.4355 C   0  0  0  0  0
   -3.0470    0.9540    0.2202 C   0  0  0  0  0
    3.8074   -0.0349   -1.4757 C   0  0  0  0  0
   -1.8669    1.7216   -0.3151 C   0  0  0  0  0
    3.2805    0.2687    2.4052 C   0  0  0  0  0
    0.4716    2.3282    0.2340 C   0  0  0  0  0
    1.7113    1.9431    1.0812 C   0  0  0  0  0
    6.4338   -3.2690   -1.4322 C   0  0  0  0  0
   -4.5994    3.4552    2.0273 C   0  0  0  0  0
    5.0970   -0.8562    1.0698 C   0  0  0  0  0
   -2.2497   -1.1001   -0.9364 N   0  0  0  0  0
    8.1821   -4.1109   -0.0907 N   0  0  0  0  0
    6.6638   -3.5596    2.2736 N   0  0  0  0  0
   -1.9105   -3.2759   -1.8341 N   0  0  0  0  0
   -3.9205    1.5426    0.9803 N   0  0  0  0  0
    2.1925    1.2508   -0.0999 N   0  0  0  0  0
    6.9341   -3.5585   -0.0945 N   0  0  0  0  0
   -0.7918    1.6664    0.5319 N   0  0  0  0  0
    9.7976   -4.9003    1.3619 O   0  0  0  0  0
    3.2613   -1.0774   -1.9225 O   0  0  0  0  0
    8.4232   -4.4047    3.4370 O   0  0  0  0  0
    1.0701    1.5613   -2.1462 O   0  0  0  0  0
    4.7198    0.6846   -1.9597 O   0  0  0  0  0
   -1.9846    2.2813   -1.3933 O   0  0  0  0  0
    2.4183   -6.2481   -5.5850 O   0  0  0  0  0
   -3.6004    2.8908    1.1921 O   0  0  0  0  0
   -4.0312   -2.8688   -0.3195 S   0  0  0  0  0
    1.5175    0.7382    2.4171 S   0  0  0  0  0
    4.6474   -2.5983    0.9997 S   0  0  0  0  0
  1  6  1  0  0  0
  2  4  1  0  0  0
  3  7  1  0  0  0
  5 42  1  0  0  0
  6 16  1  0  0  0
  7 40  1  0  0  0
  8 17  1  0  0  0
  8 26  1  0  0  0
  9 29  1  0  0  0
  9 42  1  0  0  0
 10 18  1  0  0  0
 10 31  1  0  0  0
 12 13  1  0  0  0
 12 27  1  0  0  0
 13 28  1  0  0  0
 14 31  1  0  0  0
 15 32  1  0  0  0
 15 44  1  0  0  0
 17 19  1  0  0  0
 18 35  1  0  0  0
 19 33  1  0  0  0
 20 11  1  0  0  0
 20 43  1  0  0  0
 21 14  1  0  0  0
 21 22  1  0  0  0
 21 33  1  0  0  0
 22 31  1  0  0  0
 22 43  1  0  0  0
 23 32  1  0  0  0
 24 41  1  0  0  0
 25 11  1  0  0  0
 25 44  1  0  0  0
 30 41  1  0  0  0
 32 27  1  0  0  0
  1  3  2  0  0  0
  2  6  2  0  0  0
  4  7  2  0  0  0
  5  8  2  0  0  0
  9 26  2  0  0  0
 10 11  2  0  0  0
 12 34  2  0  0  0
 13 36  2  0  0  0
 14 37  2  0  0  0
 15 28  2  0  0  0
 16 29  2  0  0  0
 17 30  2  0  0  0
 18 38  2  0  0  0
 19 39  2  0  0  0
M  CHG  2  34  -1  35  -1
M  END
> <rmsd>
0.38201651

$$$$
ZINC95101146


 44 48  0  0  0  0  0  0  0  0999 V2000
    1.1927   -3.2628   -3.8612 C   0  0  0  0  0
   -0.3156   -5.1027   -3.4408 C   0  0  0  0  0
    1.9924   -4.0967   -4.6424 C   0  0  0  0  0
    0.4841   -5.9368   -4.2220 C   0  0  0  0  0
   -4.2259   -1.2822    0.3027 C   0  0  0  0  0
    0.0386   -3.7657   -3.2603 C   0  0  0  0  0
    1.6382   -5.4337   -4.8229 C   0  0  0  0  0
   -3.1877   -0.4846   -0.1306 C   0  0  0  0  0
   -2.5923   -2.3580   -1.1031 C   0  0  0  0  0
    3.2762    0.4335   -0.1262 C   0  0  0  0  0
    3.8454   -0.0137    1.0166 C   0  0  0  0  0
    8.1802   -4.2460   -1.1194 C   0  0  0  0  0
    8.3093   -3.5267    0.2337 C   0  0  0  0  0
    1.2481    1.6920   -0.9577 C   0  0  0  0  0
    6.0636   -3.2283    0.2077 C   0  0  0  0  0
   -0.8059   -2.8853   -2.4355 C   0  0  0  0  0
   -3.0469    0.9542    0.2202 C   0  0  0  0  0
    3.8074   -0.0347   -1.4758 C   0  0  0  0  0
   -1.8668    1.7218   -0.3151 C   0  0  0  0  0
    3.2806    0.2690    2.4052 C   0  0  0  0  0
    0.4717    2.3285    0.2339 C   0  0  0  0  0
    1.7113    1.9434    1.0812 C   0  0  0  0  0
    4.6776   -4.0865   -1.7094 C   0  0  0  0  0
   -4.5993    3.4555    2.0273 C   0  0  0  0  0
    5.0971   -0.8560    1.0697 C   0  0  0  0  0
   -2.2496   -1.0998   -0.9364 N   0  0  0  0  0
    7.0170   -4.3886   -1.6744 N   0  0  0  0  0
    7.1768   -3.0348    0.8438 N   0  0  0  0  0
   -1.9105   -3.2756   -1.8341 N   0  0  0  0  0
   -3.9204    1.5429    0.9802 N   0  0  0  0  0
    2.1925    1.2511   -0.1000 N   0  0  0  0  0
    5.9393   -3.8780   -1.0106 N   0  0  0  0  0
   -0.7917    1.6667    0.5318 N   0  0  0  0  0
    9.3109   -4.6023   -1.4882 O   0  0  0  0  0
    3.2614   -1.0771   -1.9225 O   0  0  0  0  0
    9.4170   -3.4034    0.7460 O   0  0  0  0  0
    1.0701    1.5616   -2.1463 O   0  0  0  0  0
    4.7198    0.6849   -1.9597 O   0  0  0  0  0
   -1.9846    2.2816   -1.3933 O   0  0  0  0  0
    2.4184   -6.2478   -5.5850 O   0  0  0  0  0
   -3.6003    2.8910    1.1921 O   0  0  0  0  0
   -4.0311   -2.8686   -0.3195 S   0  0  0  0  0
    1.5175    0.7384    2.4170 S   0  0  0  0  0
    4.6475   -2.5980    0.9997 S   0  0  0  0  0
  1  6  1  0  0  0
  2  4  1  0  0  0
  3  7  1  0  0  0
  5 42  1  0  0  0
  6 16  1  0  0  0
  7 40  1  0  0  0
  8 17  1  0  0  0
  8 26  1  0  0  0
  9 29  1  0  0  0
  9 42  1  0  0  0
 10 18  1  0  0  0
 10 31  1  0  0  0
 12 13  1  0  0  0
 12 27  1  0  0  0
 13 28  1  0  0  0
 14 31  1  0  0  0
 15 32  1  0  0  0
 15 44  1  0  0  0
 17 19  1  0  0  0
 18 35  1  0  0  0
 19 33  1  0  0  0
 20 11  1  0  0  0
 20 43  1  0  0  0
 21 14  1  0  0  0
 21 22  1  0  0  0
 21 33  1  0  0  0
 22 31  1  0  0  0
 22 43  1  0  0  0
 23 32  1  0  0  0
 24 41  1  0  0  0
 25 11  1  0  0  0
 25 44  1  0  0  0
 30 41  1  0  0  0
 32 27  1  0  0  0
  1  3  2  0  0  0
  2  6  2  0  0  0
  4  7  2  0  0  0
  5  8  2  0  0  0
  9 26  2  0  0  0
 10 11  2  0  0  0
 12 34  2  0  0  0
 13 36  2  0  0  0
 14 37  2  0  0  0
 15 28  2  0  0  0
 16 29  2  0  0  0
 17 30  2  0  0  0
 18 38  2  0  0  0
 19 39  2  0  0  0
M  CHG  2  34  -1  35  -1
M  END
> <rmsd>
0.382016718

$$$$
ZINC95101146


 44 48  0  0  0  0  0  0  0  0999 V2000
    0.5610   -3.7976   -3.7882 C   0  0  0  0  0
   -1.0916   -5.4727   -3.2405 C   0  0  0  0  0
    1.2532   -4.7321   -4.5582 C   0  0  0  0  0
   -0.3994   -6.4073   -4.0106 C   0  0  0  0  0
   -4.5023   -1.1623    0.4592 C   0  0  0  0  0
   -0.6115   -4.1678   -3.1293 C   0  0  0  0  0
    0.7731   -6.0369   -4.6695 C   0  0  0  0  0
   -3.4124   -0.4815   -0.0413 C   0  0  0  0  0
   -3.0246   -2.4391   -0.9509 C   0  0  0  0  0
    3.1041   -0.1625   -0.2850 C   0  0  0  0  0
    3.6712   -0.6141    0.8570 C   0  0  0  0  0
    7.5251   -5.3091   -1.2335 C   0  0  0  0  0
    7.7675   -4.5513    0.0825 C   0  0  0  0  0
    1.1696    1.2431   -1.1041 C   0  0  0  0  0
    5.5586   -4.0488    0.1161 C   0  0  0  0  0
   -1.3425   -3.1812   -2.3164 C   0  0  0  0  0
   -3.1294    0.9511    0.2425 C   0  0  0  0  0
    3.5417   -0.7310   -1.6296 C   0  0  0  0  0
   -1.9046    1.5849   -0.3631 C   0  0  0  0  0
    3.1848   -0.2255    2.2496 C   0  0  0  0  0
    0.4975    1.9953    0.0835 C   0  0  0  0  0
    1.7269    1.5320    0.9061 C   0  0  0  0  0
    4.0323   -4.8518   -1.7165 C   0  0  0  0  0
   -4.3826    3.6547    1.9894 C   0  0  0  0  0
    4.8426   -1.5652    0.9060 C   0  0  0  0  0
   -2.5636   -1.2121   -0.8497 N   0  0  0  0  0
    6.3345   -5.3661   -1.7441 N   0  0  0  0  0
    6.7069   -3.9333    0.7070 N   0  0  0  0  0
   -2.4554   -3.4440   -1.6634 N   0  0  0  0  0
   -3.9180    1.6475    1.0043 N   0  0  0  0  0
    2.1005    0.7517   -0.2590 N   0  0  0  0  0
    5.3321   -4.7325   -1.0684 N   0  0  0  0  0
   -0.8091    1.4650    0.4502 N   0  0  0  0  0
    8.6048   -5.7824   -1.6229 O   0  0  0  0  0
    2.8877   -1.7358   -2.0132 O   0  0  0  0  0
    8.8995   -4.5101    0.5530 O   0  0  0  0  0
    0.9378    1.0822   -2.2795 O   0  0  0  0  0
    4.4974   -0.1183   -2.1732 O   0  0  0  0  0
   -2.0100    2.1096   -1.4601 O   0  0  0  0  0
    1.4484   -6.9491   -5.4206 O   0  0  0  0  0
   -3.4697    2.9679    1.1474 O   0  0  0  0  0
   -4.4745   -2.7834   -0.1001 S   0  0  0  0  0
    1.4730    0.4042    2.2982 S   0  0  0  0  0
    4.2348   -3.2599    0.9256 S   0  0  0  0  0
  1  6  1  0  0  0
  2  4  1  0  0  0
  3  7  1  0  0  0
  5 42  1  0  0  0
  6 16  1  0  0  0
  7 40  1  0  0  0
  8 17  1  0  0  0
  8 26  1  0  0  0
  9 29  1  0  0  0
  9 42  1  0  0  0
 10 18  1  0  0  0
 10 31  1  0  0  0
 12 13  1  0  0  0
 12 27  1  0  0  0
 13 28  1  0  0  0
 14 31  1  0  0  0
 15 32  1  0  0  0
 15 44  1  0  0  0
 17 19  1  0  0  0
 18 35  1  0  0  0
 19 33  1  0  0  0
 20 11  1  0  0  0
 20 43  1  0  0  0
 21 14  1  0  0  0
 21 22  1  0  0  0
 21 33  1  0  0  0
 22 31  1  0  0  0
 22 43  1  0  0  0
 23 32  1  0  0  0
 24 41  1  0  0  0
 25 11  1  0  0  0
 25 44  1  0  0  0
 30 41  1  0  0  0
 32 27  1  0  0  0
  1  3  2  0  0  0
  2  6  2  0  0  0
  4  7  2  0  0  0
  5  8  2  0  0  0
  9 26  2  0  0  0
 10 11  2  0  0  0
 12 34  2  0  0  0
 13 36  2  0  0  0
 14 37  2  0  0  0
 15 28  2  0  0  0
 16 29  2  0  0  0
 17 30  2  0  0  0
 18 38  2  0  0  0
 19 39  2  0  0  0
M  CHG  2  34  -1  35  -1
M  END
> <rmsd>
0.0900084153

$$$$
ZINC95101146


 44 48  0  0  0  0  0  0  0  0999 V2000
    0.5608   -3.7974   -3.7884 C   0  0  0  0  0
   -1.0919   -5.4725   -3.2409 C   0  0  0  0  0
    1.2530   -4.7319   -4.5585 C   0  0  0  0  0
   -0.3997   -6.4072   -4.0110 C   0  0  0  0  0
   -4.5024   -1.1623    0.4591 C   0  0  0  0  0
   -0.6117   -4.1676   -3.1296 C   0  0  0  0  0
    0.7728   -6.0367   -4.6698 C   0  0  0  0  0
   -3.4125   -0.4815   -0.0414 C   0  0  0  0  0
   -3.0247   -2.4390   -0.9511 C   0  0  0  0  0
    3.1039   -0.1626   -0.2849 C   0  0  0  0  0
    3.6711   -0.6144    0.8570 C   0  0  0  0  0
    8.0675   -5.4805    1.1812 C   0  0  0  0  0
    7.7496   -4.5452    0.0026 C   0  0  0  0  0
    1.1695    1.2430   -1.1040 C   0  0  0  0  0
    5.7532   -4.1091    0.9809 C   0  0  0  0  0
   -1.3427   -3.1811   -2.3166 C   0  0  0  0  0
   -3.1294    0.9511    0.2425 C   0  0  0  0  0
    3.5416   -0.7311   -1.6296 C   0  0  0  0  0
   -1.9047    1.5849   -0.3631 C   0  0  0  0  0
    3.1846   -0.2258    2.2497 C   0  0  0  0  0
    0.4974    1.9952    0.0837 C   0  0  0  0  0
    1.7268    1.5318    0.9063 C   0  0  0  0  0
    5.1333   -5.1883    3.1681 C   0  0  0  0  0
   -4.3827    3.6547    1.9896 C   0  0  0  0  0
    4.8424   -1.5655    0.9059 C   0  0  0  0  0
   -2.5637   -1.2120   -0.8498 N   0  0  0  0  0
    7.2079   -5.6387    2.1392 N   0  0  0  0  0
    6.5423   -3.8831   -0.0228 N   0  0  0  0  0
   -2.4557   -3.4439   -1.6636 N   0  0  0  0  0
   -3.9180    1.6475    1.0043 N   0  0  0  0  0
    2.1004    0.7516   -0.2589 N   0  0  0  0  0
    6.0341   -4.9485    2.0479 N   0  0  0  0  0
   -0.8092    1.4649    0.4503 N   0  0  0  0  0
    9.1938   -5.9722    1.0043 O   0  0  0  0  0
    2.8875   -1.7359   -2.0133 O   0  0  0  0  0
    8.5753   -4.4049   -0.8934 O   0  0  0  0  0
    0.9377    1.0822   -2.2794 O   0  0  0  0  0
    4.4974   -0.1184   -2.1732 O   0  0  0  0  0
   -2.0100    2.1097   -1.4600 O   0  0  0  0  0
    1.4481   -6.9489   -5.4210 O   0  0  0  0  0
   -3.4697    2.9678    1.1476 O   0  0  0  0  0
   -4.4748   -2.7833   -0.1003 S   0  0  0  0  0
    1.4729    0.4040    2.2982 S   0  0  0  0  0
    4.2346   -3.2602    0.9254 S   0  0  0  0  0
  1  6  1  0  0  0
  2  4  1  0  0  0
  3  7  1  0  0  0
  5 42  1  0  0  0
  6 16  1  0  0  0
  7 40  1  0  0  0
  8 17  1  0  0  0
  8 26  1  0  0  0
  9 29  1  0  0  0
  9 42  1  0  0  0
 10 18  1  0  0  0
 10 31  1  0  0  0
 12 13  1  0  0  0
 12 27  1  0  0  0
 13 28  1  0  0  0
 14 31  1  0  0  0
 15 32  1  0  0  0
 15 44  1  0  0  0
 17 19  1  0  0  0
 18 35  1  0  0  0
 19 33  1  0  0  0
 20 11  1  0  0  0
 20 43  1  0  0  0
 21 14  1  0  0  0
 21 22  1  0  0  0
 21 33  1  0  0  0
 22 31  1  0  0  0
 22 43  1  0  0  0
 23 32  1  0  0  0
 24 41  1  0  0  0
 25 11  1  0  0  0
 25 44  1  0  0  0
 30 41  1  0  0  0
 32 27  1  0  0  0
  1  3  2  0  0  0
  2  6  2  0  0  0
  4  7  2  0  0  0
  5  8  2  0  0  0
  9 26  2  0  0  0
 10 11  2  0  0  0
 12 34  2  0  0  0
 13 36  2  0  0  0
 14 37  2  0  0  0
 15 28  2  0  0  0
 16 29  2  0  0  0
 17 30  2  0  0  0
 18 38  2  0  0  0
 19 39  2  0  0  0
M  CHG  2  34  -1  35  -1
M  END
> <rmsd>
0.0900051594

$$$$
ZINC95101146


 44 48  0  0  0  0  0  0  0  0999 V2000
    1.1925   -3.2627   -3.8614 C   0  0  0  0  0
   -0.3159   -5.1026   -3.4411 C   0  0  0  0  0
    1.9922   -4.0966   -4.6426 C   0  0  0  0  0
    0.4839   -5.9367   -4.2224 C   0  0  0  0  0
   -4.2261   -1.2822    0.3026 C   0  0  0  0  0
    0.0384   -3.7656   -3.2605 C   0  0  0  0  0
    1.6379   -5.4336   -4.8232 C   0  0  0  0  0
   -3.1878   -0.4846   -0.1307 C   0  0  0  0  0
   -2.5925   -2.3580   -1.1032 C   0  0  0  0  0
    3.2761    0.4333   -0.1261 C   0  0  0  0  0
    3.8453   -0.0139    1.0166 C   0  0  0  0  0
    8.6579   -4.4714    1.3046 C   0  0  0  0  0
    8.2935   -3.5189    0.1536 C   0  0  0  0  0
    1.2481    1.6920   -0.9576 C   0  0  0  0  0
    6.2349   -3.3078    1.0759 C   0  0  0  0  0
   -0.8061   -2.8852   -2.4357 C   0  0  0  0  0
   -3.0470    0.9542    0.2202 C   0  0  0  0  0
    3.8073   -0.0348   -1.4757 C   0  0  0  0  0
   -1.8669    1.7218   -0.3150 C   0  0  0  0  0
    3.2804    0.2686    2.4052 C   0  0  0  0  0
    0.4717    2.3283    0.2341 C   0  0  0  0  0
    1.7113    1.9432    1.0813 C   0  0  0  0  0
    5.6467   -4.5319    3.1945 C   0  0  0  0  0
   -4.5993    3.4554    2.0275 C   0  0  0  0  0
    5.0969   -0.8563    1.0697 C   0  0  0  0  0
   -2.2498   -1.0998   -0.9365 N   0  0  0  0  0
    7.7860   -4.7479    2.2239 N   0  0  0  0  0
    7.0319   -2.9683    0.1111 N   0  0  0  0  0
   -1.9107   -3.2756   -1.8343 N   0  0  0  0  0
   -3.9205    1.5429    0.9803 N   0  0  0  0  0
    2.1924    1.2509   -0.0999 N   0  0  0  0  0
    6.5573   -4.1634    2.1180 N   0  0  0  0  0
   -0.7918    1.6666    0.5319 N   0  0  0  0  0
    9.8298   -4.8510    1.1490 O   0  0  0  0  0
    3.2613   -1.0772   -1.9226 O   0  0  0  0  0
    9.1313   -3.2659   -0.7058 O   0  0  0  0  0
    1.0701    1.5616   -2.1462 O   0  0  0  0  0
    4.7198    0.6847   -1.9596 O   0  0  0  0  0
   -1.9846    2.2816   -1.3932 O   0  0  0  0  0
    2.4181   -6.2477   -5.5853 O   0  0  0  0  0
   -3.6004    2.8910    1.1922 O   0  0  0  0  0
   -4.0314   -2.8685   -0.3197 S   0  0  0  0  0
    1.5174    0.7381    2.4171 S   0  0  0  0  0
    4.6473   -2.5983    0.9996 S   0  0  0  0  0
  1  6  1  0  0  0
  2  4  1  0  0  0
  3  7  1  0  0  0
  5 42  1  0  0  0
  6 16  1  0  0  0
  7 40  1  0  0  0
  8 17  1  0  0  0
  8 26  1  0  0  0
  9 29  1  0  0  0
  9 42  1  0  0  0
 10 18  1  0  0  0
 10 31  1  0  0  0
 12 13  1  0  0  0
 12 27  1  0  0  0
 13 28  1  0  0  0
 14 31  1  0  0  0
 15 32  1  0  0  0
 15 44  1  0  0  0
 17 19  1  0  0  0
 18 35  1  0  0  0
 19 33  1  0  0  0
 20 11  1  0  0  0
 20 43  1  0  0  0
 21 14  1  0  0  0
 21 22  1  0  0  0
 21 33  1  0  0  0
 22 31  1  0  0  0
 22 43  1  0  0  0
 23 32  1  0  0  0
 24 41  1  0  0  0
 25 11  1  0  0  0
 25 44  1  0  0  0
 30 41  1  0  0  0
 32 27  1  0  0  0
  1  3  2  0  0  0
  2  6  2  0  0  0
  4  7  2  0  0  0
  5  8  2  0  0  0
  9 26  2  0  0  0
 10 11  2  0  0  0
 12 34  2  0  0  0
 13 36  2  0  0  0
 14 37  2  0  0  0
 15 28  2  0  0  0
 16 29  2  0  0  0
 17 30  2  0  0  0
 18 38  2  0  0  0
 19 39  2  0  0  0
M  CHG  2  34  -1  35  -1
M  END
> <rmsd>
0.382139117

$$$$
ZINC95101146


 44 48  0  0  0  0  0  0  0  0999 V2000
    0.7718   -3.9247   -3.8937 C   0  0  0  0  0
    0.6148   -5.2486   -1.8789 C   0  0  0  0  0
    1.6873   -4.8354   -4.4208 C   0  0  0  0  0
    1.5302   -6.1594   -2.4060 C   0  0  0  0  0
   -4.1502   -1.1735    0.2322 C   0  0  0  0  0
    0.2355   -4.1312   -2.6228 C   0  0  0  0  0
    2.0665   -5.9528   -3.6771 C   0  0  0  0  0
   -3.0314   -0.3871    0.0529 C   0  0  0  0  0
   -2.1619   -2.3261   -0.4895 C   0  0  0  0  0
    3.2337   -0.0513   -0.0659 C   0  0  0  0  0
    3.6813   -0.9033    0.8846 C   0  0  0  0  0
    8.0367   -5.6232   -0.3717 C   0  0  0  0  0
    7.2091   -5.6793    0.9232 C   0  0  0  0  0
    1.4043    1.6392   -0.4954 C   0  0  0  0  0
    5.7029   -4.3054   -0.0652 C   0  0  0  0  0
   -0.7313   -3.1698   -2.0660 C   0  0  0  0  0
   -3.0088    1.0835    0.2759 C   0  0  0  0  0
    3.7947   -0.1257   -1.4810 C   0  0  0  0  0
   -1.7238    1.8348    0.0463 C   0  0  0  0  0
    3.0650   -1.0118    2.2758 C   0  0  0  0  0
    0.6273    1.9514    0.8187 C   0  0  0  0  0
    1.7651    1.1716    1.5260 C   0  0  0  0  0
    6.0585   -3.4948   -2.4208 C   0  0  0  0  0
   -5.0465    3.6965    1.2518 C   0  0  0  0  0
    4.8317   -1.8619    0.6932 C   0  0  0  0  0
   -1.8903   -1.0464   -0.3605 N   0  0  0  0  0
    7.6226   -4.9222   -1.3811 N   0  0  0  0  0
    6.0282   -4.9745    0.9968 N   0  0  0  0  0
   -1.2867   -3.2876   -0.8779 N   0  0  0  0  0
   -4.0745    1.7141    0.6683 N   0  0  0  0  0
    2.2425    0.8388    0.1966 N   0  0  0  0  0
    6.4423   -4.2525   -1.2366 N   0  0  0  0  0
   -0.7146    1.3851    0.8559 N   0  0  0  0  0
    9.0536   -6.3198   -0.2226 O   0  0  0  0  0
    3.1705   -0.8987   -2.2538 O   0  0  0  0  0
    7.6140   -6.3496    1.8673 O   0  0  0  0  0
    1.2870    1.9158   -1.6663 O   0  0  0  0  0
    4.8058    0.5961   -1.6841 O   0  0  0  0  0
   -1.7154    2.7183   -0.7958 O   0  0  0  0  0
    2.9600   -6.8416   -4.1911 O   0  0  0  0  0
   -3.8384    3.0870    0.8238 O   0  0  0  0  0
   -3.7699   -2.8061   -0.1304 S   0  0  0  0  0
    1.3637   -0.3635    2.3957 S   0  0  0  0  0
    4.2064   -3.4243    0.0531 S   0  0  0  0  0
  1  6  1  0  0  0
  2  4  1  0  0  0
  3  7  1  0  0  0
  5 42  1  0  0  0
  6 16  1  0  0  0
  7 40  1  0  0  0
  8 17  1  0  0  0
  8 26  1  0  0  0
  9 29  1  0  0  0
  9 42  1  0  0  0
 10 18  1  0  0  0
 10 31  1  0  0  0
 12 13  1  0  0  0
 12 27  1  0  0  0
 13 28  1  0  0  0
 14 31  1  0  0  0
 15 32  1  0  0  0
 15 44  1  0  0  0
 17 19  1  0  0  0
 18 35  1  0  0  0
 19 33  1  0  0  0
 20 11  1  0  0  0
 20 43  1  0  0  0
 21 14  1  0  0  0
 21 22  1  0  0  0
 21 33  1  0  0  0
 22 31  1  0  0  0
 22 43  1  0  0  0
 23 32  1  0  0  0
 24 41  1  0  0  0
 25 11  1  0  0  0
 25 44  1  0  0  0
 30 41  1  0  0  0
 32 27  1  0  0  0
  1  3  2  0  0  0
  2  6  2  0  0  0
  4  7  2  0  0  0
  5  8  2  0  0  0
  9 26  2  0  0  0
 10 11  2  0  0  0
 12 34  2  0  0  0
 13 36  2  0  0  0
 14 37  2  0  0  0
 15 28  2  0  0  0
 16 29  2  0  0  0
 17 30  2  0  0  0
 18 38  2  0  0  0
 19 39  2  0  0  0
M  CHG  2  34  -1  35  -1
M  END
> <rmsd>
0.569315314

$$$$
ZINC95101146


 44 48  0  0  0  0  0  0  0  0999 V2000
   -0.0148   -4.2762   -4.0038 C   0  0  0  0  0
   -0.1340   -5.5497   -1.9542 C   0  0  0  0  0
    0.7875   -5.2657   -4.5720 C   0  0  0  0  0
    0.6681   -6.5393   -2.5223 C   0  0  0  0  0
   -4.4057   -1.0730    0.3867 C   0  0  0  0  0
   -0.4755   -4.4182   -2.6949 C   0  0  0  0  0
    1.1289   -6.3973   -3.8313 C   0  0  0  0  0
   -3.2440   -0.3814    0.1140 C   0  0  0  0  0
   -2.5692   -2.3923   -0.4434 C   0  0  0  0  0
    3.0045   -0.5483   -0.4397 C   0  0  0  0  0
    3.4492   -1.4175    0.4966 C   0  0  0  0  0
    7.3227   -6.4899   -0.9494 C   0  0  0  0  0
    6.5857   -6.4583    0.3999 C   0  0  0  0  0
    1.2878    1.2752   -0.7805 C   0  0  0  0  0
    5.1265   -4.9853   -0.5135 C   0  0  0  0  0
   -1.3227   -3.3736   -2.0949 C   0  0  0  0  0
   -3.0907    1.0863    0.3024 C   0  0  0  0  0
    3.4578   -0.6908   -1.8878 C   0  0  0  0  0
   -1.7699    1.7287   -0.0310 C   0  0  0  0  0
    2.9249   -1.4533    1.9287 C   0  0  0  0  0
    0.6314    1.6702    0.5763 C   0  0  0  0  0
    1.7511    0.8141    1.2214 C   0  0  0  0  0
    5.3792   -4.2449   -2.9052 C   0  0  0  0  0
   -4.8440    3.8692    1.3571 C   0  0  0  0  0
    4.5047   -2.4678    0.2484 C   0  0  0  0  0
   -2.1898   -1.1364   -0.3616 N   0  0  0  0  0
    6.8954   -5.7750   -1.9434 N   0  0  0  0  0
    5.4717   -5.6604    0.5384 N   0  0  0  0  0
   -1.8014   -3.4269   -0.8693 N   0  0  0  0  0
   -4.0736    1.8062    0.7527 N   0  0  0  0  0
    2.1069    0.4222   -0.1298 N   0  0  0  0  0
    5.7842   -5.0110   -1.7335 N   0  0  0  0  0
   -0.7450    1.2135    0.7176 N   0  0  0  0  0
    8.2898   -7.2628   -0.8547 O   0  0  0  0  0
    2.7224   -1.4243   -2.5989 O   0  0  0  0  0
    7.0018   -7.1429    1.3287 O   0  0  0  0  0
    1.1111    1.5409   -1.9465 O   0  0  0  0  0
    4.5057   -0.0555   -2.1754 O   0  0  0  0  0
   -1.7510    2.5946   -0.8910 O   0  0  0  0  0
    1.9119   -7.3629   -4.3853 O   0  0  0  0  0
   -3.7203    3.1583    0.8612 O   0  0  0  0  0
   -4.1809   -2.7365    0.0351 S   0  0  0  0  0
    1.2923   -0.6694    2.1502 S   0  0  0  0  0
    3.7157   -3.9858   -0.3128 S   0  0  0  0  0
  1  6  1  0  0  0
  2  4  1  0  0  0
  3  7  1  0  0  0
  5 42  1  0  0  0
  6 16  1  0  0  0
  7 40  1  0  0  0
  8 17  1  0  0  0
  8 26  1  0  0  0
  9 29  1  0  0  0
  9 42  1  0  0  0
 10 18  1  0  0  0
 10 31  1  0  0  0
 12 13  1  0  0  0
 12 27  1  0  0  0
 13 28  1  0  0  0
 14 31  1  0  0  0
 15 32  1  0  0  0
 15 44  1  0  0  0
 17 19  1  0  0  0
 18 35  1  0  0  0
 19 33  1  0  0  0
 20 11  1  0  0  0
 20 43  1  0  0  0
 21 14  1  0  0  0
 21 22  1  0  0  0
 21 33  1  0  0  0
 22 31  1  0  0  0
 22 43  1  0  0  0
 23 32  1  0  0  0
 24 41  1  0  0  0
 25 11  1  0  0  0
 25 44  1  0  0  0
 30 41  1  0  0  0
 32 27  1  0  0  0
  1  3  2  0  0  0
  2  6  2  0  0  0
  4  7  2  0  0  0
  5  8  2  0  0  0
  9 26  2  0  0  0
 10 11  2  0  0  0
 12 34  2  0  0  0
 13 36  2  0  0  0
 14 37  2  0  0  0
 15 28  2  0  0  0
 16 29  2  0  0  0
 17 30  2  0  0  0
 18 38  2  0  0  0
 19 39  2  0  0  0
M  CHG  2  34  -1  35  -1
M  END
> <rmsd>
0.376093566

$$$$
ZINC95101146


 44 48  0  0  0  0  0  0  0  0999 V2000
    1.3874   -4.9740    0.2175 C   0  0  0  0  0
   -0.0318   -5.6068   -1.6325 C   0  0  0  0  0
    2.2694   -6.0048   -0.1065 C   0  0  0  0  0
    0.8504   -6.6377   -1.9565 C   0  0  0  0  0
   -4.4053   -1.0734    0.3867 C   0  0  0  0  0
    0.2367   -4.7750   -0.5455 C   0  0  0  0  0
    2.0010   -6.8366   -1.1935 C   0  0  0  0  0
   -3.2437   -0.3818    0.1139 C   0  0  0  0  0
   -2.5688   -2.3927   -0.4434 C   0  0  0  0  0
    3.0048   -0.5485   -0.4400 C   0  0  0  0  0
    3.4496   -1.4175    0.4964 C   0  0  0  0  0
    8.6310   -5.3559   -0.1870 C   0  0  0  0  0
    8.3063   -4.3311   -1.2867 C   0  0  0  0  0
    1.2881    1.2750   -0.7810 C   0  0  0  0  0
    7.1159   -3.1672    0.2498 C   0  0  0  0  0
   -0.6946   -3.6867   -0.2037 C   0  0  0  0  0
   -3.0904    1.0859    0.3021 C   0  0  0  0  0
    3.4581   -0.6911   -1.8881 C   0  0  0  0  0
   -1.7696    1.7284   -0.0313 C   0  0  0  0  0
    2.9254   -1.4532    1.9285 C   0  0  0  0  0
    0.6317    1.6700    0.5758 C   0  0  0  0  0
    1.7514    0.8140    1.2210 C   0  0  0  0  0
    6.9399   -3.9837    2.6236 C   0  0  0  0  0
   -4.8438    3.8690    1.3566 C   0  0  0  0  0
    4.5051   -2.4679    0.2482 C   0  0  0  0  0
   -2.1894   -1.1367   -0.3617 N   0  0  0  0  0
    8.1737   -5.1903    1.0151 N   0  0  0  0  0
    7.5231   -3.2409   -0.9791 N   0  0  0  0  0
   -1.8010   -3.4273   -0.8692 N   0  0  0  0  0
   -4.0733    1.8059    0.7524 N   0  0  0  0  0
    2.1072    0.4220   -0.1302 N   0  0  0  0  0
    7.4068   -4.0853    1.2469 N   0  0  0  0  0
   -0.7447    1.2132    0.7172 N   0  0  0  0  0
    9.3397   -6.2506   -0.6758 O   0  0  0  0  0
    2.7227   -1.4247   -2.5991 O   0  0  0  0  0
    8.7496   -4.5017   -2.4176 O   0  0  0  0  0
    1.1113    1.5405   -1.9470 O   0  0  0  0  0
    4.5059   -0.0558   -2.1758 O   0  0  0  0  0
   -1.7508    2.5942   -0.8915 O   0  0  0  0  0
    2.8614   -7.8426   -1.5098 O   0  0  0  0  0
   -3.7200    3.1580    0.8608 O   0  0  0  0  0
   -4.1805   -2.7369    0.0352 S   0  0  0  0  0
    1.2927   -0.6694    2.1500 S   0  0  0  0  0
    6.1286   -1.7802    0.6130 S   0  0  0  0  0
  1  6  1  0  0  0
  2  4  1  0  0  0
  3  7  1  0  0  0
  5 42  1  0  0  0
  6 16  1  0  0  0
  7 40  1  0  0  0
  8 17  1  0  0  0
  8 26  1  0  0  0
  9 29  1  0  0  0
  9 42  1  0  0  0
 10 18  1  0  0  0
 10 31  1  0  0  0
 12 13  1  0  0  0
 12 27  1  0  0  0
 13 28  1  0  0  0
 14 31  1  0  0  0
 15 32  1  0  0  0
 15 44  1  0  0  0
 17 19  1  0  0  0
 18 35  1  0  0  0
 19 33  1  0  0  0
 20 11  1  0  0  0
 20 43  1  0  0  0
 21 14  1  0  0  0
 21 22  1  0  0  0
 21 33  1  0  0  0
 22 31  1  0  0  0
 22 43  1  0  0  0
 23 32  1  0  0  0
 24 41  1  0  0  0
 25 11  1  0  0  0
 25 44  1  0  0  0
 30 41  1  0  0  0
 32 27  1  0  0  0
  1  3  2  0  0  0
  2  6  2  0  0  0
  4  7  2  0  0  0
  5  8  2  0  0  0
  9 26  2  0  0  0
 10 11  2  0  0  0
 12 34  2  0  0  0
 13 36  2  0  0  0
 14 37  2  0  0  0
 15 28  2  0  0  0
 16 29  2  0  0  0
 17 30  2  0  0  0
 18 38  2  0  0  0
 19 39  2  0  0  0
M  CHG  2  34  -1  35  -1
M  END
> <rmsd>
0.376406997

$$$$
ZINC95101146


 44 48  0  0  0  0  0  0  0  0999 V2000
    1.9336   -4.6035    0.4029 C   0  0  0  0  0
    0.6991   -5.3046   -1.5519 C   0  0  0  0  0
    2.9151   -5.5545    0.1242 C   0  0  0  0  0
    1.6807   -6.2557   -1.8307 C   0  0  0  0  0
   -4.1498   -1.1739    0.2322 C   0  0  0  0  0
    0.8255   -4.4785   -0.4351 C   0  0  0  0  0
    2.7887   -6.3806   -0.9926 C   0  0  0  0  0
   -3.0311   -0.3874    0.0528 C   0  0  0  0  0
   -2.1615   -2.3264   -0.4894 C   0  0  0  0  0
    3.2340   -0.0514   -0.0663 C   0  0  0  0  0
    3.6817   -0.9034    0.8843 C   0  0  0  0  0
    9.1953   -4.4072    0.4988 C   0  0  0  0  0
    8.8657   -3.3870   -0.6037 C   0  0  0  0  0
    1.4046    1.6390   -0.4959 C   0  0  0  0  0
    7.4841   -2.3542    0.8651 C   0  0  0  0  0
   -0.2108   -3.4744   -0.1411 C   0  0  0  0  0
   -3.0085    1.0832    0.2756 C   0  0  0  0  0
    3.7950   -0.1259   -1.4814 C   0  0  0  0  0
   -1.7235    1.8345    0.0459 C   0  0  0  0  0
    3.0655   -1.0117    2.2755 C   0  0  0  0  0
    0.6277    1.9512    0.8182 C   0  0  0  0  0
    1.7655    1.1716    1.5256 C   0  0  0  0  0
    7.2122   -3.2344    3.2069 C   0  0  0  0  0
   -5.0462    3.6962    1.2513 C   0  0  0  0  0
    4.8321   -1.8619    0.6929 C   0  0  0  0  0
   -1.8899   -1.0467   -0.3606 N   0  0  0  0  0
    8.6453   -4.3046    1.6686 N   0  0  0  0  0
    7.9789   -2.3686   -0.3334 N   0  0  0  0  0
   -1.2863   -3.2880   -0.8778 N   0  0  0  0  0
   -4.0742    1.7138    0.6681 N   0  0  0  0  0
    2.2428    0.8387    0.1962 N   0  0  0  0  0
    7.7786   -3.2685    1.8647 N   0  0  0  0  0
   -0.7143    1.3849    0.8555 N   0  0  0  0  0
   10.0048   -5.2325    0.0458 O   0  0  0  0  0
    3.1708   -0.8990   -2.2541 O   0  0  0  0  0
    9.3974   -3.4972   -1.7035 O   0  0  0  0  0
    1.2872    1.9155   -1.6668 O   0  0  0  0  0
    4.8061    0.5959   -1.6846 O   0  0  0  0  0
   -1.7152    2.7180   -0.7963 O   0  0  0  0  0
    3.7462   -7.3088   -1.2648 O   0  0  0  0  0
   -3.8381    3.0867    0.8234 O   0  0  0  0  0
   -3.7695   -2.8064   -0.1303 S   0  0  0  0  0
    1.3642   -0.3635    2.3955 S   0  0  0  0  0
    6.3669   -1.0573    1.1816 S   0  0  0  0  0
  1  6  1  0  0  0
  2  4  1  0  0  0
  3  7  1  0  0  0
  5 42  1  0  0  0
  6 16  1  0  0  0
  7 40  1  0  0  0
  8 17  1  0  0  0
  8 26  1  0  0  0
  9 29  1  0  0  0
  9 42  1  0  0  0
 10 18  1  0  0  0
 10 31  1  0  0  0
 12 13  1  0  0  0
 12 27  1  0  0  0
 13 28  1  0  0  0
 14 31  1  0  0  0
 15 32  1  0  0  0
 15 44  1  0  0  0
 17 19  1  0  0  0
 18 35  1  0  0  0
 19 33  1  0  0  0
 20 11  1  0  0  0
 20 43  1  0  0  0
 21 14  1  0  0  0
 21 22  1  0  0  0
 21 33  1  0  0  0
 22 31  1  0  0  0
 22 43  1  0  0  0
 23 32  1  0  0  0
 24 41  1  0  0  0
 25 11  1  0  0  0
 25 44  1  0  0  0
 30 41  1  0  0  0
 32 27  1  0  0  0
  1  3  2  0  0  0
  2  6  2  0  0  0
  4  7  2  0  0  0
  5  8  2  0  0  0
  9 26  2  0  0  0
 10 11  2  0  0  0
 12 34  2  0  0  0
 13 36  2  0  0  0
 14 37  2  0  0  0
 15 28  2  0  0  0
 16 29  2  0  0  0
 17 30  2  0  0  0
 18 38  2  0  0  0
 19 39  2  0  0  0
M  CHG  2  34  -1  35  -1
M  END
> <rmsd>
0.569540143

$$$$
ZINC95101146


 44 48  0  0  0  0  0  0  0  0999 V2000
    1.1926   -3.2629   -3.8613 C   0  0  0  0  0
   -0.3158   -5.1028   -3.4410 C   0  0  0  0  0
    1.9923   -4.0968   -4.6425 C   0  0  0  0  0
    0.4840   -5.9368   -4.2223 C   0  0  0  0  0
   -4.2259   -1.2824    0.3027 C   0  0  0  0  0
    0.0385   -3.7657   -3.2604 C   0  0  0  0  0
    1.6380   -5.4338   -4.8231 C   0  0  0  0  0
   -3.1877   -0.4848   -0.1306 C   0  0  0  0  0
   -2.5924   -2.3581   -1.1031 C   0  0  0  0  0
    3.2762    0.4331   -0.1260 C   0  0  0  0  0
    3.8454   -0.0141    1.0167 C   0  0  0  0  0
    9.7268   -2.8542    1.4274 C   0  0  0  0  0
    9.2510   -2.2853    0.0802 C   0  0  0  0  0
    1.2482    1.6918   -0.9575 C   0  0  0  0  0
    7.7922   -0.9849    1.2264 C   0  0  0  0  0
   -0.8060   -2.8854   -2.4356 C   0  0  0  0  0
   -3.0469    0.9541    0.2203 C   0  0  0  0  0
    3.8074   -0.0350   -1.4756 C   0  0  0  0  0
   -1.8668    1.7216   -0.3149 C   0  0  0  0  0
    3.2805    0.2685    2.4053 C   0  0  0  0  0
    0.4718    2.3282    0.2341 C   0  0  0  0  0
    1.7114    1.9430    1.0814 C   0  0  0  0  0
    7.6844   -1.0850    3.7385 C   0  0  0  0  0
   -4.5992    3.4552    2.0275 C   0  0  0  0  0
    5.0970   -0.8565    1.0698 C   0  0  0  0  0
   -2.2497   -1.1000   -0.9364 N   0  0  0  0  0
    9.1971   -2.4377    2.5354 N   0  0  0  0  0
    8.2558   -1.3335    0.0666 N   0  0  0  0  0
   -1.9106   -3.2757   -1.8342 N   0  0  0  0  0
   -3.9204    1.5427    0.9804 N   0  0  0  0  0
    2.1925    1.2508   -0.0998 N   0  0  0  0  0
    8.2180   -1.4910    2.4447 N   0  0  0  0  0
   -0.7917    1.6664    0.5320 N   0  0  0  0  0
   10.6177   -3.6915    1.2116 O   0  0  0  0  0
    3.2614   -1.0774   -1.9225 O   0  0  0  0  0
    9.7651   -2.6883   -0.9580 O   0  0  0  0  0
    1.0702    1.5614   -2.1461 O   0  0  0  0  0
    4.7199    0.6846   -1.9595 O   0  0  0  0  0
   -1.9845    2.2814   -1.3932 O   0  0  0  0  0
    2.4182   -6.2478   -5.5852 O   0  0  0  0  0
   -3.6003    2.8908    1.1923 O   0  0  0  0  0
   -4.0312   -2.8687   -0.3196 S   0  0  0  0  0
    1.5175    0.7380    2.4172 S   0  0  0  0  0
    6.5363    0.2195    1.1820 S   0  0  0  0  0
  1  6  1  0  0  0
  2  4  1  0  0  0
  3  7  1  0  0  0
  5 42  1  0  0  0
  6 16  1  0  0  0
  7 40  1  0  0  0
  8 17  1  0  0  0
  8 26  1  0  0  0
  9 29  1  0  0  0
  9 42  1  0  0  0
 10 18  1  0  0  0
 10 31  1  0  0  0
 12 13  1  0  0  0
 12 27  1  0  0  0
 13 28  1  0  0  0
 14 31  1  0  0  0
 15 32  1  0  0  0
 15 44  1  0  0  0
 17 19  1  0  0  0
 18 35  1  0  0  0
 19 33  1  0  0  0
 20 11  1  0  0  0
 20 43  1  0  0  0
 21 14  1  0  0  0
 21 22  1  0  0  0
 21 33  1  0  0  0
 22 31  1  0  0  0
 22 43  1  0  0  0
 23 32  1  0  0  0
 24 41  1  0  0  0
 25 11  1  0  0  0
 25 44  1  0  0  0
 30 41  1  0  0  0
 32 27  1  0  0  0
  1  3  2  0  0  0
  2  6  2  0  0  0
  4  7  2  0  0  0
  5  8  2  0  0  0
  9 26  2  0  0  0
 10 11  2  0  0  0
 12 34  2  0  0  0
 13 36  2  0  0  0
 14 37  2  0  0  0
 15 28  2  0  0  0
 16 29  2  0  0  0
 17 30  2  0  0  0
 18 38  2  0  0  0
 19 39  2  0  0  0
M  CHG  2  34  -1  35  -1
M  END
> <rmsd>
0.382139087

$$$$
ZINC95101146


 44 48  0  0  0  0  0  0  0  0999 V2000
    0.5608   -3.7976   -3.7883 C   0  0  0  0  0
   -1.0918   -5.4727   -3.2408 C   0  0  0  0  0
    1.2530   -4.7321   -4.5584 C   0  0  0  0  0
   -0.3996   -6.4073   -4.0109 C   0  0  0  0  0
   -4.5023   -1.1625    0.4592 C   0  0  0  0  0
   -0.6116   -4.1678   -3.1295 C   0  0  0  0  0
    0.7729   -6.0369   -4.6697 C   0  0  0  0  0
   -3.4124   -0.4817   -0.0413 C   0  0  0  0  0
   -3.0246   -2.4392   -0.9510 C   0  0  0  0  0
    3.1040   -0.1628   -0.2848 C   0  0  0  0  0
    3.6712   -0.6145    0.8571 C   0  0  0  0  0
    9.2821   -3.9649    1.1997 C   0  0  0  0  0
    8.8116   -3.4089   -0.1547 C   0  0  0  0  0
    1.1696    1.2429   -1.1039 C   0  0  0  0  0
    7.5188   -1.9351    0.9809 C   0  0  0  0  0
   -1.3426   -3.1813   -2.3165 C   0  0  0  0  0
   -3.1294    0.9510    0.2426 C   0  0  0  0  0
    3.5416   -0.7313   -1.6295 C   0  0  0  0  0
   -1.9046    1.5848   -0.3630 C   0  0  0  0  0
    3.1847   -0.2260    2.2498 C   0  0  0  0  0
    0.4975    1.9950    0.0837 C   0  0  0  0  0
    1.7269    1.5316    0.9064 C   0  0  0  0  0
    7.4930   -1.9245    3.4972 C   0  0  0  0  0
   -4.3826    3.6545    1.9897 C   0  0  0  0  0
    4.8425   -1.5657    0.9060 C   0  0  0  0  0
   -2.5636   -1.2122   -0.8497 N   0  0  0  0  0
    8.8327   -3.4575    2.3052 N   0  0  0  0  0
    7.9069   -2.3709   -0.1771 N   0  0  0  0  0
   -2.4556   -3.4441   -1.6635 N   0  0  0  0  0
   -3.9179    1.6473    1.0044 N   0  0  0  0  0
    2.1005    0.7514   -0.2589 N   0  0  0  0  0
    7.9407   -2.4293    2.2055 N   0  0  0  0  0
   -0.8091    1.4647    0.4504 N   0  0  0  0  0
   10.0852   -4.8886    0.9915 O   0  0  0  0  0
    2.8876   -1.7360   -2.0132 O   0  0  0  0  0
    9.2493   -3.8986   -1.1906 O   0  0  0  0  0
    0.9378    1.0820   -2.2793 O   0  0  0  0  0
    4.4974   -0.1186   -2.1731 O   0  0  0  0  0
   -2.0099    2.1095   -1.4599 O   0  0  0  0  0
    1.4482   -6.9491   -5.4209 O   0  0  0  0  0
   -3.4696    2.9677    1.1477 O   0  0  0  0  0
   -4.4747   -2.7835   -0.1002 S   0  0  0  0  0
    1.4730    0.4038    2.2983 S   0  0  0  0  0
    6.3764   -0.6230    0.9253 S   0  0  0  0  0
  1  6  1  0  0  0
  2  4  1  0  0  0
  3  7  1  0  0  0
  5 42  1  0  0  0
  6 16  1  0  0  0
  7 40  1  0  0  0
  8 17  1  0  0  0
  8 26  1  0  0  0
  9 29  1  0  0  0
  9 42  1  0  0  0
 10 18  1  0  0  0
 10 31  1  0  0  0
 12 13  1  0  0  0
 12 27  1  0  0  0
 13 28  1  0  0  0
 14 31  1  0  0  0
 15 32  1  0  0  0
 15 44  1  0  0  0
 17 19  1  0  0  0
 18 35  1  0  0  0
 19 33  1  0  0  0
 20 11  1  0  0  0
 20 43  1  0  0  0
 21 14  1  0  0  0
 21 22  1  0  0  0
 21 33  1  0  0  0
 22 31  1  0  0  0
 22 43  1  0  0  0
 23 32  1  0  0  0
 24 41  1  0  0  0
 25 11  1  0  0  0
 25 44  1  0  0  0
 30 41  1  0  0  0
 32 27  1  0  0  0
  1  3  2  0  0  0
  2  6  2  0  0  0
  4  7  2  0  0  0
  5  8  2  0  0  0
  9 26  2  0  0  0
 10 11  2  0  0  0
 12 34  2  0  0  0
 13 36  2  0  0  0
 14 37  2  0  0  0
 15 28  2  0  0  0
 16 29  2  0  0  0
 17 30  2  0  0  0
 18 38  2  0  0  0
 19 39  2  0  0  0
M  CHG  2  34  -1  35  -1
M  END
> <rmsd>
0.090005137

$$$$
ZINC77271156


 44 48  0  0  0  0  0  0  0  0999 V2000
    1.1466   -6.8958   -0.8419 C   0  0  0  0  0
   -4.3897   -1.0794    0.3756 C   0  0  0  0  0
    0.6508   -5.6255   -0.6357 C   0  0  0  0  0
   -3.2311   -0.3811    0.1072 C   0  0  0  0  0
    1.3674   -6.0337    1.3965 C   0  0  0  0  0
   -2.5426   -2.3878   -0.4483 C   0  0  0  0  0
    2.9798   -0.5452   -0.4391 C   0  0  0  0  0
    3.4050   -1.4218    0.5016 C   0  0  0  0  0
    1.2834    1.3115   -0.7795 C   0  0  0  0  0
    0.0259   -4.8164   -1.6826 C   0  0  0  0  0
   -3.0851    1.0867    0.3008 C   0  0  0  0  0
    3.4363   -0.6999   -1.8852 C   0  0  0  0  0
   -0.4689   -3.4446   -1.3058 C   0  0  0  0  0
   -1.7670    1.7368   -0.0282 C   0  0  0  0  0
    2.8651   -1.4486    1.9297 C   0  0  0  0  0
    6.4293   -3.8732    2.8128 C   0  0  0  0  0
    6.7838   -4.4210    1.4452 C   0  0  0  0  0
    5.3051   -2.8946    2.5215 C   0  0  0  0  0
    6.7747   -3.1820    0.5696 C   0  0  0  0  0
    0.6336    1.6878    0.5828 C   0  0  0  0  0
    1.7652    0.8471    1.2132 C   0  0  0  0  0
    5.9803   -0.8560    1.1685 C   0  0  0  0  0
   -0.8411   -4.8762   -5.0241 C   0  0  0  0  0
   -4.8537    3.8575    1.3623 C   0  0  0  0  0
    4.4454   -2.4889    0.2626 C   0  0  0  0  0
    0.7763   -5.1296    0.6474 N   0  0  0  0  0
   -2.1707   -1.1298   -0.3650 N   0  0  0  0  0
   -0.1062   -5.2589   -2.8960 N   0  0  0  0  0
   -4.0724    1.8003    0.7520 N   0  0  0  0  0
    2.0953    0.4410   -0.1410 N   0  0  0  0  0
    1.6461   -5.8703    2.7171 N   0  0  0  0  0
   -1.7957   -3.4558   -0.8698 N   0  0  0  0  0
   -0.7456    1.2223    0.7207 N   0  0  0  0  0
    5.6488   -2.3258    1.1442 N   0  0  0  0  0
    2.6900   -1.4210   -2.5975 O   0  0  0  0  0
    1.1057    1.5913   -1.9419 O   0  0  0  0  0
    4.4973   -0.0854   -2.1698 O   0  0  0  0  0
    0.3223   -2.5228   -1.4158 O   0  0  0  0  0
   -1.7510    2.6057   -0.8851 O   0  0  0  0  0
   -0.7356   -4.3185   -3.7235 O   0  0  0  0  0
   -3.7257    3.1538    0.8658 O   0  0  0  0  0
    1.8002   -7.5031    0.6227 S   0  0  0  0  0
   -4.1540   -2.7414    0.0243 S   0  0  0  0  0
    1.2561   -0.6147    2.1461 S   0  0  0  0  0
  1 42  1  0  0  0
  2 43  1  0  0  0
  3 10  1  0  0  0
  3 26  1  0  0  0
  4 11  1  0  0  0
  4 27  1  0  0  0
  5 31  1  0  0  0
  5 42  1  0  0  0
  6 32  1  0  0  0
  6 43  1  0  0  0
  7 12  1  0  0  0
  7 30  1  0  0  0
  9 30  1  0  0  0
 10 13  1  0  0  0
 11 14  1  0  0  0
 12 35  1  0  0  0
 13 32  1  0  0  0
 14 33  1  0  0  0
 15  8  1  0  0  0
 15 44  1  0  0  0
 16 17  1  0  0  0
 16 18  1  0  0  0
 17 19  1  0  0  0
 18 34  1  0  0  0
 19 34  1  0  0  0
 20  9  1  0  0  0
 20 21  1  0  0  0
 20 33  1  0  0  0
 21 30  1  0  0  0
 21 44  1  0  0  0
 22 34  1  0  0  0
 23 40  1  0  0  0
 24 41  1  0  0  0
 25  8  1  0  0  0
 25 34  1  0  0  0
 28 40  1  0  0  0
 29 41  1  0  0  0
  1  3  2  0  0  0
  2  4  2  0  0  0
  5 26  2  0  0  0
  6 27  2  0  0  0
  7  8  2  0  0  0
  9 36  2  0  0  0
 10 28  2  0  0  0
 11 29  2  0  0  0
 12 37  2  0  0  0
 13 38  2  0  0  0
 14 39  2  0  0  0
M  CHG  2  34   1  35  -1
M  END
> <rmsd>
0.38176766

$$$$
ZINC77271156


 44 48  0  0  0  0  0  0  0  0999 V2000
    1.9163   -6.5199   -0.6951 C   0  0  0  0  0
   -4.1329   -1.1785    0.2213 C   0  0  0  0  0
    1.3087   -5.2966   -0.5041 C   0  0  0  0  0
   -3.0173   -0.3866    0.0467 C   0  0  0  0  0
    1.9130   -5.6916    1.5669 C   0  0  0  0  0
   -2.1358   -2.3215   -0.4909 C   0  0  0  0  0
    3.2100   -0.0563   -0.0624 C   0  0  0  0  0
    3.6371   -0.9172    0.8919 C   0  0  0  0  0
    1.4000    1.6700   -0.4919 C   0  0  0  0  0
    0.6956   -4.5162   -1.5794 C   0  0  0  0  0
   -3.0014    1.0835    0.2736 C   0  0  0  0  0
    3.7762   -0.1439   -1.4749 C   0  0  0  0  0
    0.0692   -3.1954   -1.2166 C   0  0  0  0  0
   -1.7192    1.8409    0.0489 C   0  0  0  0  0
    3.0036   -1.0165    2.2777 C   0  0  0  0  0
    6.6785   -3.1754    3.3714 C   0  0  0  0  0
    7.1688   -3.6645    2.0236 C   0  0  0  0  0
    5.5033   -2.2810    3.0171 C   0  0  0  0  0
    7.1225   -2.4114    1.1694 C   0  0  0  0  0
    0.6298    1.9653    0.8269 C   0  0  0  0  0
    1.7779    1.2017    1.5221 C   0  0  0  0  0
    6.1074   -0.1676    1.7480 C   0  0  0  0  0
    0.0692   -4.5713   -4.9744 C   0  0  0  0  0
   -5.0524    3.6852    1.2517 C   0  0  0  0  0
    4.7725   -1.8949    0.7100 C   0  0  0  0  0
    1.3056   -4.8202    0.7924 N   0  0  0  0  0
   -1.8710   -1.0405   -0.3614 N   0  0  0  0  0
    0.6831   -4.9415   -2.8061 N   0  0  0  0  0
   -4.0707    1.7084    0.6653 N   0  0  0  0  0
    2.2319    0.8517    0.1884 N   0  0  0  0  0
    2.0860   -5.5354    2.9063 N   0  0  0  0  0
   -1.2794   -3.3190   -0.8756 N   0  0  0  0  0
   -0.7145    1.3913    0.8596 N   0  0  0  0  0
    5.8954   -1.6578    1.6768 N   0  0  0  0  0
    3.1402   -0.9053   -2.2495 O   0  0  0  0  0
    1.2815    1.9600   -1.6593 O   0  0  0  0  0
    4.8025    0.5571   -1.6740 O   0  0  0  0  0
    0.7909   -2.2127   -1.2557 O   0  0  0  0  0
   -1.7126    2.7266   -0.7908 O   0  0  0  0  0
    0.0401   -4.0352   -3.6608 O   0  0  0  0  0
   -3.8408    3.0820    0.8249 O   0  0  0  0  0
    2.5130   -7.1060    0.8021 S   0  0  0  0  0
   -3.7430   -2.8092   -0.1390 S   0  0  0  0  0
    1.3226   -0.3149    2.3933 S   0  0  0  0  0
  1 42  1  0  0  0
  2 43  1  0  0  0
  3 10  1  0  0  0
  3 26  1  0  0  0
  4 11  1  0  0  0
  4 27  1  0  0  0
  5 31  1  0  0  0
  5 42  1  0  0  0
  6 32  1  0  0  0
  6 43  1  0  0  0
  7 12  1  0  0  0
  7 30  1  0  0  0
  9 30  1  0  0  0
 10 13  1  0  0  0
 11 14  1  0  0  0
 12 35  1  0  0  0
 13 32  1  0  0  0
 14 33  1  0  0  0
 15  8  1  0  0  0
 15 44  1  0  0  0
 16 17  1  0  0  0
 16 18  1  0  0  0
 17 19  1  0  0  0
 18 34  1  0  0  0
 19 34  1  0  0  0
 20  9  1  0  0  0
 20 21  1  0  0  0
 20 33  1  0  0  0
 21 30  1  0  0  0
 21 44  1  0  0  0
 22 34  1  0  0  0
 23 40  1  0  0  0
 24 41  1  0  0  0
 25  8  1  0  0  0
 25 34  1  0  0  0
 28 40  1  0  0  0
 29 41  1  0  0  0
  1  3  2  0  0  0
  2  4  2  0  0  0
  5 26  2  0  0  0
  6 27  2  0  0  0
  7  8  2  0  0  0
  9 36  2  0  0  0
 10 28  2  0  0  0
 11 29  2  0  0  0
 12 37  2  0  0  0
 13 38  2  0  0  0
 14 39  2  0  0  0
M  CHG  2  34   1  35  -1
M  END
> <rmsd>
0.583972573

$$$$
ZINC77271156


 44 48  0  0  0  0  0  0  0  0999 V2000
    1.3432   -4.8911    0.8137 C   0  0  0  0  0
   -4.1332   -1.1785    0.2214 C   0  0  0  0  0
    1.3084   -5.2967   -0.5040 C   0  0  0  0  0
   -3.0176   -0.3867    0.0467 C   0  0  0  0  0
    2.3679   -7.0198    0.3434 C   0  0  0  0  0
   -2.1361   -2.3215   -0.4908 C   0  0  0  0  0
    3.2097   -0.0563   -0.0623 C   0  0  0  0  0
    3.6368   -0.9173    0.8919 C   0  0  0  0  0
    1.3997    1.6699   -0.4918 C   0  0  0  0  0
    0.6953   -4.5163   -1.5794 C   0  0  0  0  0
   -3.0017    1.0835    0.2736 C   0  0  0  0  0
    3.7759   -0.1440   -1.4748 C   0  0  0  0  0
    0.0689   -3.1955   -1.2166 C   0  0  0  0  0
   -1.7194    1.8408    0.0489 C   0  0  0  0  0
    3.0033   -1.0166    2.2778 C   0  0  0  0  0
    6.6782   -3.1755    3.3714 C   0  0  0  0  0
    7.1686   -3.6645    2.0237 C   0  0  0  0  0
    5.5030   -2.2811    3.0171 C   0  0  0  0  0
    7.1222   -2.4115    1.1695 C   0  0  0  0  0
    0.6295    1.9653    0.8270 C   0  0  0  0  0
    1.7776    1.2016    1.5222 C   0  0  0  0  0
    6.1071   -0.1676    1.7480 C   0  0  0  0  0
    0.0689   -4.5714   -4.9743 C   0  0  0  0  0
   -5.0527    3.6851    1.2518 C   0  0  0  0  0
    4.7722   -1.8949    0.7100 C   0  0  0  0  0
    1.8959   -6.5169   -0.7757 N   0  0  0  0  0
   -1.8713   -1.0405   -0.3613 N   0  0  0  0  0
    0.6828   -4.9415   -2.8060 N   0  0  0  0  0
   -4.0710    1.7083    0.6653 N   0  0  0  0  0
    2.2316    0.8516    0.1884 N   0  0  0  0  0
    3.0107   -8.2143    0.4347 N   0  0  0  0  0
   -1.2797   -3.3190   -0.8756 N   0  0  0  0  0
   -0.7148    1.3912    0.8597 N   0  0  0  0  0
    5.8952   -1.6579    1.6769 N   0  0  0  0  0
    3.1399   -0.9054   -2.2495 O   0  0  0  0  0
    1.2812    1.9600   -1.6592 O   0  0  0  0  0
    4.8022    0.5571   -1.6739 O   0  0  0  0  0
    0.7906   -2.2128   -1.2556 O   0  0  0  0  0
   -1.7129    2.7266   -0.7907 O   0  0  0  0  0
    0.0399   -4.0352   -3.6608 O   0  0  0  0  0
   -3.8411    3.0819    0.8249 O   0  0  0  0  0
    2.1398   -6.0789    1.7602 S   0  0  0  0  0
   -3.7433   -2.8093   -0.1389 S   0  0  0  0  0
    1.3223   -0.3149    2.3933 S   0  0  0  0  0
  1 42  1  0  0  0
  2 43  1  0  0  0
  3 10  1  0  0  0
  3 26  1  0  0  0
  4 11  1  0  0  0
  4 27  1  0  0  0
  5 31  1  0  0  0
  5 42  1  0  0  0
  6 32  1  0  0  0
  6 43  1  0  0  0
  7 12  1  0  0  0
  7 30  1  0  0  0
  9 30  1  0  0  0
 10 13  1  0  0  0
 11 14  1  0  0  0
 12 35  1  0  0  0
 13 32  1  0  0  0
 14 33  1  0  0  0
 15  8  1  0  0  0
 15 44  1  0  0  0
 16 17  1  0  0  0
 16 18  1  0  0  0
 17 19  1  0  0  0
 18 34  1  0  0  0
 19 34  1  0  0  0
 20  9  1  0  0  0
 20 21  1  0  0  0
 20 33  1  0  0  0
 21 30  1  0  0  0
 21 44  1  0  0  0
 22 34  1  0  0  0
 23 40  1  0  0  0
 24 41  1  0  0  0
 25  8  1  0  0  0
 25 34  1  0  0  0
 28 40  1  0  0  0
 29 41  1  0  0  0
  1  3  2  0  0  0
  2  4  2  0  0  0
  5 26  2  0  0  0
  6 27  2  0  0  0
  7  8  2  0  0  0
  9 36  2  0  0  0
 10 28  2  0  0  0
 11 29  2  0  0  0
 12 37  2  0  0  0
 13 38  2  0  0  0
 14 39  2  0  0  0
M  CHG  2  34   1  35  -1
M  END
> <rmsd>
0.583972692

$$$$
ZINC77271156


 44 48  0  0  0  0  0  0  0  0999 V2000
    0.8097   -5.2029    0.6675 C   0  0  0  0  0
   -4.3900   -1.0794    0.3756 C   0  0  0  0  0
    0.6505   -5.6255   -0.6356 C   0  0  0  0  0
   -3.2314   -0.3811    0.1073 C   0  0  0  0  0
    1.6303   -7.4132    0.1734 C   0  0  0  0  0
   -2.5429   -2.3879   -0.4482 C   0  0  0  0  0
    2.9795   -0.5453   -0.4391 C   0  0  0  0  0
    3.4047   -1.4219    0.5016 C   0  0  0  0  0
    1.2832    1.3114   -0.7794 C   0  0  0  0  0
    0.0256   -4.8164   -1.6825 C   0  0  0  0  0
   -3.0854    1.0867    0.3009 C   0  0  0  0  0
    3.4360   -0.7000   -1.8851 C   0  0  0  0  0
   -0.4692   -3.4447   -1.3057 C   0  0  0  0  0
   -1.7673    1.7367   -0.0281 C   0  0  0  0  0
    2.8648   -1.4487    1.9298 C   0  0  0  0  0
    6.4290   -3.8733    2.8129 C   0  0  0  0  0
    6.7836   -4.4210    1.4453 C   0  0  0  0  0
    5.3048   -2.8946    2.5215 C   0  0  0  0  0
    6.7744   -3.1820    0.5696 C   0  0  0  0  0
    0.6333    1.6877    0.5828 C   0  0  0  0  0
    1.7649    0.8470    1.2132 C   0  0  0  0  0
    5.9800   -0.8561    1.1686 C   0  0  0  0  0
   -0.8414   -4.8762   -5.0241 C   0  0  0  0  0
   -4.8540    3.8575    1.3624 C   0  0  0  0  0
    4.4451   -2.4889    0.2627 C   0  0  0  0  0
    1.1209   -6.8925   -0.9210 N   0  0  0  0  0
   -2.1710   -1.1298   -0.3649 N   0  0  0  0  0
   -0.1065   -5.2590   -2.8959 N   0  0  0  0  0
   -4.0726    1.8002    0.7521 N   0  0  0  0  0
    2.0950    0.4409   -0.1409 N   0  0  0  0  0
    2.1832   -8.6531    0.2457 N   0  0  0  0  0
   -1.7960   -3.4559   -0.8697 N   0  0  0  0  0
   -0.7459    1.2222    0.7207 N   0  0  0  0  0
    5.6485   -2.3259    1.1443 N   0  0  0  0  0
    2.6897   -1.4210   -2.5974 O   0  0  0  0  0
    1.1054    1.5912   -1.9418 O   0  0  0  0  0
    4.4970   -0.0854   -2.1697 O   0  0  0  0  0
    0.3220   -2.5228   -1.4157 O   0  0  0  0  0
   -1.7513    2.6057   -0.8850 O   0  0  0  0  0
   -0.7359   -4.3185   -3.7235 O   0  0  0  0  0
   -3.7260    3.1537    0.8659 O   0  0  0  0  0
    1.5765   -6.4346    1.5820 S   0  0  0  0  0
   -4.1543   -2.7415    0.0243 S   0  0  0  0  0
    1.2558   -0.6147    2.1461 S   0  0  0  0  0
  1 42  1  0  0  0
  2 43  1  0  0  0
  3 10  1  0  0  0
  3 26  1  0  0  0
  4 11  1  0  0  0
  4 27  1  0  0  0
  5 31  1  0  0  0
  5 42  1  0  0  0
  6 32  1  0  0  0
  6 43  1  0  0  0
  7 12  1  0  0  0
  7 30  1  0  0  0
  9 30  1  0  0  0
 10 13  1  0  0  0
 11 14  1  0  0  0
 12 35  1  0  0  0
 13 32  1  0  0  0
 14 33  1  0  0  0
 15  8  1  0  0  0
 15 44  1  0  0  0
 16 17  1  0  0  0
 16 18  1  0  0  0
 17 19  1  0  0  0
 18 34  1  0  0  0
 19 34  1  0  0  0
 20  9  1  0  0  0
 20 21  1  0  0  0
 20 33  1  0  0  0
 21 30  1  0  0  0
 21 44  1  0  0  0
 22 34  1  0  0  0
 23 40  1  0  0  0
 24 41  1  0  0  0
 25  8  1  0  0  0
 25 34  1  0  0  0
 28 40  1  0  0  0
 29 41  1  0  0  0
  1  3  2  0  0  0
  2  4  2  0  0  0
  5 26  2  0  0  0
  6 27  2  0  0  0
  7  8  2  0  0  0
  9 36  2  0  0  0
 10 28  2  0  0  0
 11 29  2  0  0  0
 12 37  2  0  0  0
 13 38  2  0  0  0
 14 39  2  0  0  0
M  CHG  2  34   1  35  -1
M  END
> <rmsd>
0.381767392

$$$$
ZINC77271156


 44 48  0  0  0  0  0  0  0  0999 V2000
    0.2527   -6.4740   -3.5501 C   0  0  0  0  0
   -4.3903   -1.0792    0.3753 C   0  0  0  0  0
   -0.1527   -5.2463   -3.0701 C   0  0  0  0  0
   -3.2316   -0.3809    0.1070 C   0  0  0  0  0
   -0.8043   -5.0180   -5.1518 C   0  0  0  0  0
   -2.5432   -2.3876   -0.4486 C   0  0  0  0  0
    2.9792   -0.5451   -0.4394 C   0  0  0  0  0
    3.4045   -1.4217    0.5013 C   0  0  0  0  0
    1.2829    1.3117   -0.7797 C   0  0  0  0  0
    0.0253   -4.8162   -1.6828 C   0  0  0  0  0
   -3.0857    1.0869    0.3006 C   0  0  0  0  0
    3.4357   -0.6997   -1.8854 C   0  0  0  0  0
   -0.4695   -3.4444   -1.3061 C   0  0  0  0  0
   -1.7676    1.7369   -0.0284 C   0  0  0  0  0
    2.8645   -1.4485    1.9294 C   0  0  0  0  0
    6.4287   -3.8730    2.8126 C   0  0  0  0  0
    6.7833   -4.4208    1.4450 C   0  0  0  0  0
    5.3045   -2.8944    2.5212 C   0  0  0  0  0
    6.7741   -3.1818    0.5693 C   0  0  0  0  0
    0.6330    1.6879    0.5825 C   0  0  0  0  0
    1.7646    0.8472    1.2129 C   0  0  0  0  0
    5.9797   -0.8558    1.1683 C   0  0  0  0  0
    1.2902   -5.8596    1.3556 C   0  0  0  0  0
   -4.8543    3.8577    1.3621 C   0  0  0  0  0
    4.4449   -2.4887    0.2624 C   0  0  0  0  0
   -0.7587   -4.4099   -3.9872 N   0  0  0  0  0
   -2.1713   -1.1296   -0.3652 N   0  0  0  0  0
    0.5932   -5.5817   -0.8012 N   0  0  0  0  0
   -4.0729    1.8004    0.7518 N   0  0  0  0  0
    2.0947    0.4412   -0.1412 N   0  0  0  0  0
   -1.3377   -4.4753   -6.2784 N   0  0  0  0  0
   -1.7962   -3.4557   -0.8701 N   0  0  0  0  0
   -0.7461    1.2224    0.7204 N   0  0  0  0  0
    5.6482   -2.3256    1.1440 N   0  0  0  0  0
    2.6894   -1.4208   -2.5977 O   0  0  0  0  0
    1.1051    1.5914   -1.9421 O   0  0  0  0  0
    4.4967   -0.0852   -2.1700 O   0  0  0  0  0
    0.3217   -2.5226   -1.4160 O   0  0  0  0  0
   -1.7515    2.6059   -0.8854 O   0  0  0  0  0
    0.6600   -4.9625    0.4547 O   0  0  0  0  0
   -3.7263    3.1539    0.8656 O   0  0  0  0  0
   -0.1373   -6.5978   -5.2156 S   0  0  0  0  0
   -4.1546   -2.7413    0.0240 S   0  0  0  0  0
    1.2555   -0.6145    2.1458 S   0  0  0  0  0
  1 42  1  0  0  0
  2 43  1  0  0  0
  3 10  1  0  0  0
  3 26  1  0  0  0
  4 11  1  0  0  0
  4 27  1  0  0  0
  5 31  1  0  0  0
  5 42  1  0  0  0
  6 32  1  0  0  0
  6 43  1  0  0  0
  7 12  1  0  0  0
  7 30  1  0  0  0
  9 30  1  0  0  0
 10 13  1  0  0  0
 11 14  1  0  0  0
 12 35  1  0  0  0
 13 32  1  0  0  0
 14 33  1  0  0  0
 15  8  1  0  0  0
 15 44  1  0  0  0
 16 17  1  0  0  0
 16 18  1  0  0  0
 17 19  1  0  0  0
 18 34  1  0  0  0
 19 34  1  0  0  0
 20  9  1  0  0  0
 20 21  1  0  0  0
 20 33  1  0  0  0
 21 30  1  0  0  0
 21 44  1  0  0  0
 22 34  1  0  0  0
 23 40  1  0  0  0
 24 41  1  0  0  0
 25  8  1  0  0  0
 25 34  1  0  0  0
 28 40  1  0  0  0
 29 41  1  0  0  0
  1  3  2  0  0  0
  2  4  2  0  0  0
  5 26  2  0  0  0
  6 27  2  0  0  0
  7  8  2  0  0  0
  9 36  2  0  0  0
 10 28  2  0  0  0
 11 29  2  0  0  0
 12 37  2  0  0  0
 13 38  2  0  0  0
 14 39  2  0  0  0
M  CHG  2  34   1  35  -1
M  END
> <rmsd>
0.381767601

$$$$
ZINC77271156


 44 48  0  0  0  0  0  0  0  0999 V2000
    1.1813   -6.1107   -3.4526 C   0  0  0  0  0
   -4.1335   -1.1783    0.2210 C   0  0  0  0  0
    0.6480   -4.9288   -2.9828 C   0  0  0  0  0
   -3.0178   -0.3865    0.0464 C   0  0  0  0  0
    0.1258   -4.7071   -5.1013 C   0  0  0  0  0
   -2.1363   -2.3214   -0.4912 C   0  0  0  0  0
    3.2095   -0.0561   -0.0627 C   0  0  0  0  0
    3.6366   -0.9171    0.8916 C   0  0  0  0  0
    1.3994    1.6701   -0.4922 C   0  0  0  0  0
    0.6951   -4.5161   -1.5797 C   0  0  0  0  0
   -3.0020    1.0837    0.2733 C   0  0  0  0  0
    3.7756   -0.1438   -1.4751 C   0  0  0  0  0
    0.0687   -3.1953   -1.2169 C   0  0  0  0  0
   -1.7197    1.8410    0.0486 C   0  0  0  0  0
    3.0030   -1.0164    2.2774 C   0  0  0  0  0
    6.6779   -3.1753    3.3711 C   0  0  0  0  0
    7.1683   -3.6643    2.0233 C   0  0  0  0  0
    5.5027   -2.2809    3.0168 C   0  0  0  0  0
    7.1219   -2.4113    1.1691 C   0  0  0  0  0
    0.6293    1.9655    0.8266 C   0  0  0  0  0
    1.7774    1.2018    1.5218 C   0  0  0  0  0
    6.1068   -0.1675    1.7477 C   0  0  0  0  0
    1.8253   -5.5231    1.5234 C   0  0  0  0  0
   -5.0530    3.6853    1.2514 C   0  0  0  0  0
    4.7720   -1.8947    0.7097 C   0  0  0  0  0
    0.0427   -4.1225   -3.9269 N   0  0  0  0  0
   -1.8716   -1.0403   -0.3617 N   0  0  0  0  0
    1.2594   -5.2539   -0.6726 N   0  0  0  0  0
   -4.0713    1.7085    0.6650 N   0  0  0  0  0
    2.2314    0.8518    0.1881 N   0  0  0  0  0
   -0.3696   -4.1833   -6.2540 N   0  0  0  0  0
   -1.2800   -3.3188   -0.8759 N   0  0  0  0  0
   -0.7151    1.3914    0.8593 N   0  0  0  0  0
    5.8949   -1.6577    1.6765 N   0  0  0  0  0
    3.1396   -0.9052   -2.2498 O   0  0  0  0  0
    1.2809    1.9602   -1.6596 O   0  0  0  0  0
    4.8019    0.5573   -1.6743 O   0  0  0  0  0
    0.7903   -2.2126   -1.2560 O   0  0  0  0  0
   -1.7132    2.7268   -0.7911 O   0  0  0  0  0
    1.1900   -4.6585    0.5946 O   0  0  0  0  0
   -3.8413    3.0821    0.8246 O   0  0  0  0  0
    0.9183   -6.2286   -5.1432 S   0  0  0  0  0
   -3.7435   -2.8091   -0.1393 S   0  0  0  0  0
    1.3220   -0.3147    2.3930 S   0  0  0  0  0
  1 42  1  0  0  0
  2 43  1  0  0  0
  3 10  1  0  0  0
  3 26  1  0  0  0
  4 11  1  0  0  0
  4 27  1  0  0  0
  5 31  1  0  0  0
  5 42  1  0  0  0
  6 32  1  0  0  0
  6 43  1  0  0  0
  7 12  1  0  0  0
  7 30  1  0  0  0
  9 30  1  0  0  0
 10 13  1  0  0  0
 11 14  1  0  0  0
 12 35  1  0  0  0
 13 32  1  0  0  0
 14 33  1  0  0  0
 15  8  1  0  0  0
 15 44  1  0  0  0
 16 17  1  0  0  0
 16 18  1  0  0  0
 17 19  1  0  0  0
 18 34  1  0  0  0
 19 34  1  0  0  0
 20  9  1  0  0  0
 20 21  1  0  0  0
 20 33  1  0  0  0
 21 30  1  0  0  0
 21 44  1  0  0  0
 22 34  1  0  0  0
 23 40  1  0  0  0
 24 41  1  0  0  0
 25  8  1  0  0  0
 25 34  1  0  0  0
 28 40  1  0  0  0
 29 41  1  0  0  0
  1  3  2  0  0  0
  2  4  2  0  0  0
  5 26  2  0  0  0
  6 27  2  0  0  0
  7  8  2  0  0  0
  9 36  2  0  0  0
 10 28  2  0  0  0
 11 29  2  0  0  0
 12 37  2  0  0  0
 13 38  2  0  0  0
 14 39  2  0  0  0
M  CHG  2  34   1  35  -1
M  END
> <rmsd>
0.583972454

$$$$
ZINC77271156


 44 48  0  0  0  0  0  0  0  0999 V2000
   -0.7440   -4.4695   -4.0440 C   0  0  0  0  0
   -4.3897   -1.0795    0.3751 C   0  0  0  0  0
   -0.1521   -5.2466   -3.0703 C   0  0  0  0  0
   -3.2310   -0.3812    0.1068 C   0  0  0  0  0
    0.0164   -6.6422   -4.7538 C   0  0  0  0  0
   -2.5426   -2.3879   -0.4488 C   0  0  0  0  0
    2.9798   -0.5453   -0.4396 C   0  0  0  0  0
    3.4051   -1.4220    0.5011 C   0  0  0  0  0
    1.2835    1.3114   -0.7800 C   0  0  0  0  0
    0.0259   -4.8165   -1.6831 C   0  0  0  0  0
   -3.0851    1.0866    0.3003 C   0  0  0  0  0
    3.4363   -0.7000   -1.8857 C   0  0  0  0  0
   -0.4689   -3.4447   -1.3063 C   0  0  0  0  0
   -1.7670    1.7367   -0.0287 C   0  0  0  0  0
    2.8651   -1.4488    1.9292 C   0  0  0  0  0
    6.4293   -3.8733    2.8123 C   0  0  0  0  0
    6.7839   -4.4211    1.4447 C   0  0  0  0  0
    5.3051   -2.8947    2.5210 C   0  0  0  0  0
    6.7747   -3.1821    0.5691 C   0  0  0  0  0
    0.6336    1.6876    0.5823 C   0  0  0  0  0
    1.7652    0.8470    1.2127 C   0  0  0  0  0
    5.9803   -0.8561    1.1681 C   0  0  0  0  0
    1.2908   -5.8599    1.3554 C   0  0  0  0  0
   -4.8537    3.8574    1.3619 C   0  0  0  0  0
    4.4455   -2.4890    0.2622 C   0  0  0  0  0
    0.2842   -6.4929   -3.4754 N   0  0  0  0  0
   -2.1707   -1.1299   -0.3654 N   0  0  0  0  0
    0.5938   -5.5820   -0.8014 N   0  0  0  0  0
   -4.0723    1.8002    0.7516 N   0  0  0  0  0
    2.0953    0.4409   -0.1414 N   0  0  0  0  0
    0.3130   -7.7572   -5.4730 N   0  0  0  0  0
   -1.7956   -3.4559   -0.8703 N   0  0  0  0  0
   -0.7455    1.2222    0.7202 N   0  0  0  0  0
    5.6488   -2.3259    1.1438 N   0  0  0  0  0
    2.6900   -1.4211   -2.5980 O   0  0  0  0  0
    1.1057    1.5911   -1.9424 O   0  0  0  0  0
    4.4973   -0.0855   -2.1703 O   0  0  0  0  0
    0.3223   -2.5229   -1.4162 O   0  0  0  0  0
   -1.7509    2.6056   -0.8856 O   0  0  0  0  0
    0.6606   -4.9627    0.4544 O   0  0  0  0  0
   -3.7257    3.1537    0.8653 O   0  0  0  0  0
   -0.7586   -5.3231   -5.5313 S   0  0  0  0  0
   -4.1540   -2.7415    0.0238 S   0  0  0  0  0
    1.2561   -0.6148    2.1456 S   0  0  0  0  0
  1 42  1  0  0  0
  2 43  1  0  0  0
  3 10  1  0  0  0
  3 26  1  0  0  0
  4 11  1  0  0  0
  4 27  1  0  0  0
  5 31  1  0  0  0
  5 42  1  0  0  0
  6 32  1  0  0  0
  6 43  1  0  0  0
  7 12  1  0  0  0
  7 30  1  0  0  0
  9 30  1  0  0  0
 10 13  1  0  0  0
 11 14  1  0  0  0
 12 35  1  0  0  0
 13 32  1  0  0  0
 14 33  1  0  0  0
 15  8  1  0  0  0
 15 44  1  0  0  0
 16 17  1  0  0  0
 16 18  1  0  0  0
 17 19  1  0  0  0
 18 34  1  0  0  0
 19 34  1  0  0  0
 20  9  1  0  0  0
 20 21  1  0  0  0
 20 33  1  0  0  0
 21 30  1  0  0  0
 21 44  1  0  0  0
 22 34  1  0  0  0
 23 40  1  0  0  0
 24 41  1  0  0  0
 25  8  1  0  0  0
 25 34  1  0  0  0
 28 40  1  0  0  0
 29 41  1  0  0  0
  1  3  2  0  0  0
  2  4  2  0  0  0
  5 26  2  0  0  0
  6 27  2  0  0  0
  7  8  2  0  0  0
  9 36  2  0  0  0
 10 28  2  0  0  0
 11 29  2  0  0  0
 12 37  2  0  0  0
 13 38  2  0  0  0
 14 39  2  0  0  0
M  CHG  2  34   1  35  -1
M  END
> <rmsd>
0.381767392

$$$$
ZINC77271156


 44 48  0  0  0  0  0  0  0  0999 V2000
    0.0659   -4.1795   -3.9834 C   0  0  0  0  0
   -4.1329   -1.1786    0.2209 C   0  0  0  0  0
    0.6486   -4.9290   -2.9830 C   0  0  0  0  0
   -3.0172   -0.3867    0.0462 C   0  0  0  0  0
    1.0427   -6.2708   -4.6724 C   0  0  0  0  0
   -2.1357   -2.3216   -0.4914 C   0  0  0  0  0
    3.2101   -0.0564   -0.0628 C   0  0  0  0  0
    3.6372   -0.9173    0.8914 C   0  0  0  0  0
    1.4000    1.6699   -0.4924 C   0  0  0  0  0
    0.6957   -4.5163   -1.5799 C   0  0  0  0  0
   -3.0014    1.0834    0.2731 C   0  0  0  0  0
    3.7763   -0.1440   -1.4753 C   0  0  0  0  0
    0.0693   -3.1955   -1.2171 C   0  0  0  0  0
   -1.7191    1.8408    0.0484 C   0  0  0  0  0
    3.0036   -1.0166    2.2772 C   0  0  0  0  0
    6.6785   -3.1755    3.3709 C   0  0  0  0  0
    7.1689   -3.6646    2.0232 C   0  0  0  0  0
    5.5034   -2.2811    3.0166 C   0  0  0  0  0
    7.1225   -2.4115    1.1690 C   0  0  0  0  0
    0.6299    1.9652    0.8264 C   0  0  0  0  0
    1.7780    1.2016    1.5216 C   0  0  0  0  0
    6.1074   -0.1677    1.7475 C   0  0  0  0  0
    1.8260   -5.5233    1.5232 C   0  0  0  0  0
   -5.0523    3.6851    1.2513 C   0  0  0  0  0
    4.7726   -1.8950    0.7095 C   0  0  0  0  0
    1.2088   -6.1287   -3.3761 N   0  0  0  0  0
   -1.8709   -1.0405   -0.3619 N   0  0  0  0  0
    1.2600   -5.2541   -0.6727 N   0  0  0  0  0
   -4.0707    1.7083    0.6648 N   0  0  0  0  0
    2.2320    0.8516    0.1879 N   0  0  0  0  0
    1.4755   -7.3437   -5.3867 N   0  0  0  0  0
   -1.2794   -3.3191   -0.8761 N   0  0  0  0  0
   -0.7144    1.3912    0.8592 N   0  0  0  0  0
    5.8955   -1.6579    1.6763 N   0  0  0  0  0
    3.1402   -0.9054   -2.2500 O   0  0  0  0  0
    1.2816    1.9599   -1.6598 O   0  0  0  0  0
    4.8026    0.5570   -1.6744 O   0  0  0  0  0
    0.7910   -2.2128   -1.2562 O   0  0  0  0  0
   -1.7125    2.7266   -0.7912 O   0  0  0  0  0
    1.1907   -4.6587    0.5945 O   0  0  0  0  0
   -3.8407    3.0819    0.8244 O   0  0  0  0  0
    0.2217   -4.9995   -5.4816 S   0  0  0  0  0
   -3.7429   -2.8093   -0.1395 S   0  0  0  0  0
    1.3227   -0.3150    2.3928 S   0  0  0  0  0
  1 42  1  0  0  0
  2 43  1  0  0  0
  3 10  1  0  0  0
  3 26  1  0  0  0
  4 11  1  0  0  0
  4 27  1  0  0  0
  5 31  1  0  0  0
  5 42  1  0  0  0
  6 32  1  0  0  0
  6 43  1  0  0  0
  7 12  1  0  0  0
  7 30  1  0  0  0
  9 30  1  0  0  0
 10 13  1  0  0  0
 11 14  1  0  0  0
 12 35  1  0  0  0
 13 32  1  0  0  0
 14 33  1  0  0  0
 15  8  1  0  0  0
 15 44  1  0  0  0
 16 17  1  0  0  0
 16 18  1  0  0  0
 17 19  1  0  0  0
 18 34  1  0  0  0
 19 34  1  0  0  0
 20  9  1  0  0  0
 20 21  1  0  0  0
 20 33  1  0  0  0
 21 30  1  0  0  0
 21 44  1  0  0  0
 22 34  1  0  0  0
 23 40  1  0  0  0
 24 41  1  0  0  0
 25  8  1  0  0  0
 25 34  1  0  0  0
 28 40  1  0  0  0
 29 41  1  0  0  0
  1  3  2  0  0  0
  2  4  2  0  0  0
  5 26  2  0  0  0
  6 27  2  0  0  0
  7  8  2  0  0  0
  9 36  2  0  0  0
 10 28  2  0  0  0
 11 29  2  0  0  0
 12 37  2  0  0  0
 13 38  2  0  0  0
 14 39  2  0  0  0
M  CHG  2  34   1  35  -1
M  END
> <rmsd>
0.583972692

$$$$
ZINC77271156


 44 48  0  0  0  0  0  0  0  0999 V2000
    1.0860   -6.5134   -2.9660 C   0  0  0  0  0
   -4.2089   -1.2874    0.2925 C   0  0  0  0  0
    0.6077   -5.3157   -2.4770 C   0  0  0  0  0
   -3.1742   -0.4834   -0.1378 C   0  0  0  0  0
    1.8031   -5.9260   -0.7425 C   0  0  0  0  0
   -2.5652   -2.3529   -1.1095 C   0  0  0  0  0
    3.2529    0.4279   -0.1210 C   0  0  0  0  0
    3.8031   -0.0287    1.0292 C   0  0  0  0  0
    1.2395    1.7224   -0.9646 C   0  0  0  0  0
   -0.2784   -4.4262   -3.2285 C   0  0  0  0  0
   -3.0401    0.9549    0.2175 C   0  0  0  0  0
    3.7906   -0.0511   -1.4644 C   0  0  0  0  0
   -0.7188   -3.1496   -2.5616 C   0  0  0  0  0
   -1.8634    1.7296   -0.3149 C   0  0  0  0  0
    3.2201    0.2587    2.4110 C   0  0  0  0  0
    7.1524   -1.0320    3.9054 C   0  0  0  0  0
    7.6644   -1.8756    2.7556 C   0  0  0  0  0
    5.8704   -0.4288    3.3583 C   0  0  0  0  0
    7.4477   -0.9778    1.5519 C   0  0  0  0  0
    0.4723    2.3451    0.2367 C   0  0  0  0  0
    1.7201    1.9721    1.0664 C   0  0  0  0  0
    6.1863    1.2127    1.4484 C   0  0  0  0  0
   -1.9152   -4.1251   -6.2536 C   0  0  0  0  0
   -4.6045    3.4432    2.0322 C   0  0  0  0  0
    5.0423   -0.8876    1.0979 C   0  0  0  0  0
    1.0175   -4.9774   -1.2021 N   0  0  0  0  0
   -2.2306   -1.0928   -0.9415 N   0  0  0  0  0
   -0.6801   -4.7209   -4.4275 N   0  0  0  0  0
   -3.9165    1.5371    0.9793 N   0  0  0  0  0
    2.1798    1.2599   -0.1121 N   0  0  0  0  0
    2.3828   -5.9111    0.4871 N   0  0  0  0  0
   -1.9018   -3.3060   -1.8360 N   0  0  0  0  0
   -0.7927    1.6743    0.5331 N   0  0  0  0  0
    6.1523   -0.2342    1.8680 N   0  0  0  0  0
    3.2312   -1.0843   -1.9160 O   0  0  0  0  0
    1.0586    1.6058   -2.1540 O   0  0  0  0  0
    4.7206    0.6520   -1.9390 O   0  0  0  0  0
   -0.0111   -2.1694   -2.7235 O   0  0  0  0  0
   -1.9834    2.2923   -1.3913 O   0  0  0  0  0
   -1.5229   -3.7292   -4.9486 O   0  0  0  0  0
   -3.6026    2.8860    1.1955 O   0  0  0  0  0
    2.0923   -7.2536   -1.7908 S   0  0  0  0  0
   -4.0031   -2.8722   -0.3299 S   0  0  0  0  0
    1.4707    0.7791    2.4009 S   0  0  0  0  0
  1 42  1  0  0  0
  2 43  1  0  0  0
  3 10  1  0  0  0
  3 26  1  0  0  0
  4 11  1  0  0  0
  4 27  1  0  0  0
  5 31  1  0  0  0
  5 42  1  0  0  0
  6 32  1  0  0  0
  6 43  1  0  0  0
  7 12  1  0  0  0
  7 30  1  0  0  0
  9 30  1  0  0  0
 10 13  1  0  0  0
 11 14  1  0  0  0
 12 35  1  0  0  0
 13 32  1  0  0  0
 14 33  1  0  0  0
 15  8  1  0  0  0
 15 44  1  0  0  0
 16 17  1  0  0  0
 16 18  1  0  0  0
 17 19  1  0  0  0
 18 34  1  0  0  0
 19 34  1  0  0  0
 20  9  1  0  0  0
 20 21  1  0  0  0
 20 33  1  0  0  0
 21 30  1  0  0  0
 21 44  1  0  0  0
 22 34  1  0  0  0
 23 40  1  0  0  0
 24 41  1  0  0  0
 25  8  1  0  0  0
 25 34  1  0  0  0
 28 40  1  0  0  0
 29 41  1  0  0  0
  1  3  2  0  0  0
  2  4  2  0  0  0
  5 26  2  0  0  0
  6 27  2  0  0  0
  7  8  2  0  0  0
  9 36  2  0  0  0
 10 28  2  0  0  0
 11 29  2  0  0  0
 12 37  2  0  0  0
 13 38  2  0  0  0
 14 39  2  0  0  0
M  CHG  2  34   1  35  -1
M  END
> <rmsd>
0.401332736

$$$$
ZINC77271156


 44 48  0  0  0  0  0  0  0  0999 V2000
    0.1902   -6.9809   -2.7610 C   0  0  0  0  0
   -4.4871   -1.1688    0.4493 C   0  0  0  0  0
   -0.1597   -5.7263   -2.3073 C   0  0  0  0  0
   -3.4009   -0.4804   -0.0489 C   0  0  0  0  0
    1.0395   -6.3755   -0.5896 C   0  0  0  0  0
   -2.9995   -2.4343   -0.9607 C   0  0  0  0  0
    3.0784   -0.1617   -0.2856 C   0  0  0  0  0
    3.6275   -0.6216    0.8637 C   0  0  0  0  0
    1.1600    1.2780   -1.1153 C   0  0  0  0  0
   -0.9893   -4.7893   -3.0656 C   0  0  0  0  0
   -3.1245    0.9524    0.2407 C   0  0  0  0  0
    3.5204   -0.7399   -1.6249 C   0  0  0  0  0
   -1.2877   -3.4527   -2.4388 C   0  0  0  0  0
   -1.9034    1.5947   -0.3631 C   0  0  0  0  0
    3.1246   -0.2283    2.2509 C   0  0  0  0  0
    6.9772   -1.8146    3.6661 C   0  0  0  0  0
    7.3680   -2.7458    2.5364 C   0  0  0  0  0
    5.7355   -1.1183    3.1372 C   0  0  0  0  0
    7.1886   -1.8795    1.3038 C   0  0  0  0  0
    0.4972    2.0146    0.0837 C   0  0  0  0  0
    1.7363    1.5616    0.8862 C   0  0  0  0  0
    6.1269    0.4117    1.1503 C   0  0  0  0  0
   -2.7035   -4.4577   -6.0443 C   0  0  0  0  0
   -4.3896    3.6424    2.0000 C   0  0  0  0  0
    4.7860   -1.5870    0.9271 C   0  0  0  0  0
    0.3261   -5.3776   -1.0623 N   0  0  0  0  0
   -2.5465   -1.2045   -0.8573 N   0  0  0  0  0
   -1.4602   -5.0925   -4.2370 N   0  0  0  0  0
   -3.9160    1.6417    1.0060 N   0  0  0  0  0
    2.0857    0.7649   -0.2760 N   0  0  0  0  0
    1.6635   -6.3657    0.6183 N   0  0  0  0  0
   -2.4522   -3.4717   -1.6681 N   0  0  0  0  0
   -0.8112    1.4746    0.4502 N   0  0  0  0  0
    5.9781   -1.0086    1.6314 N   0  0  0  0  0
    2.8538   -1.7344   -2.0135 O   0  0  0  0  0
    0.9253    1.1321   -2.2920 O   0  0  0  0  0
    4.4917   -0.1441   -2.1595 O   0  0  0  0  0
   -0.5009   -2.5485   -2.6655 O   0  0  0  0  0
   -2.0120    2.1236   -1.4577 O   0  0  0  0  0
   -2.2288   -4.0489   -4.7710 O   0  0  0  0  0
   -3.4739    2.9636    1.1546 O   0  0  0  0  0
    1.1686   -7.7638   -1.5899 S   0  0  0  0  0
   -4.4483   -2.7888   -0.1122 S   0  0  0  0  0
    1.4301    0.4494    2.2774 S   0  0  0  0  0
  1 42  1  0  0  0
  2 43  1  0  0  0
  3 10  1  0  0  0
  3 26  1  0  0  0
  4 11  1  0  0  0
  4 27  1  0  0  0
  5 31  1  0  0  0
  5 42  1  0  0  0
  6 32  1  0  0  0
  6 43  1  0  0  0
  7 12  1  0  0  0
  7 30  1  0  0  0
  9 30  1  0  0  0
 10 13  1  0  0  0
 11 14  1  0  0  0
 12 35  1  0  0  0
 13 32  1  0  0  0
 14 33  1  0  0  0
 15  8  1  0  0  0
 15 44  1  0  0  0
 16 17  1  0  0  0
 16 18  1  0  0  0
 17 19  1  0  0  0
 18 34  1  0  0  0
 19 34  1  0  0  0
 20  9  1  0  0  0
 20 21  1  0  0  0
 20 33  1  0  0  0
 21 30  1  0  0  0
 21 44  1  0  0  0
 22 34  1  0  0  0
 23 40  1  0  0  0
 24 41  1  0  0  0
 25  8  1  0  0  0
 25 34  1  0  0  0
 28 40  1  0  0  0
 29 41  1  0  0  0
  1  3  2  0  0  0
  2  4  2  0  0  0
  5 26  2  0  0  0
  6 27  2  0  0  0
  7  8  2  0  0  0
  9 36  2  0  0  0
 10 28  2  0  0  0
 11 29  2  0  0  0
 12 37  2  0  0  0
 13 38  2  0  0  0
 14 39  2  0  0  0
M  CHG  2  34   1  35  -1
M  END
> <rmsd>
0.102381304

$$$$
ZINC77271156


 44 48  0  0  0  0  0  0  0  0999 V2000
   -0.4428   -5.8170   -5.3084 C   0  0  0  0  0
   -4.2089   -1.2874    0.2924 C   0  0  0  0  0
   -0.7665   -4.6898   -4.5827 C   0  0  0  0  0
   -3.1742   -0.4834   -0.1379 C   0  0  0  0  0
   -1.9042   -4.2471   -6.4047 C   0  0  0  0  0
   -2.5652   -2.3529   -1.1097 C   0  0  0  0  0
    3.2529    0.4280   -0.1212 C   0  0  0  0  0
    3.8031   -0.0287    1.0290 C   0  0  0  0  0
    1.2396    1.7224   -0.9648 C   0  0  0  0  0
   -0.2784   -4.4262   -3.2286 C   0  0  0  0  0
   -3.0401    0.9549    0.2174 C   0  0  0  0  0
    3.7906   -0.0511   -1.4646 C   0  0  0  0  0
   -0.7188   -3.1496   -2.5617 C   0  0  0  0  0
   -1.8634    1.7296   -0.3151 C   0  0  0  0  0
    3.2201    0.2587    2.4108 C   0  0  0  0  0
    7.1524   -1.0320    3.9053 C   0  0  0  0  0
    7.6644   -1.8756    2.7554 C   0  0  0  0  0
    5.8705   -0.4288    3.3582 C   0  0  0  0  0
    7.4477   -0.9778    1.5517 C   0  0  0  0  0
    0.4723    2.3451    0.2366 C   0  0  0  0  0
    1.7201    1.9721    1.0663 C   0  0  0  0  0
    6.1864    1.2127    1.4483 C   0  0  0  0  0
    1.7127   -5.7539   -0.7400 C   0  0  0  0  0
   -4.6045    3.4433    2.0321 C   0  0  0  0  0
    5.0423   -0.8875    1.0977 C   0  0  0  0  0
   -1.6041   -3.7882   -5.2099 N   0  0  0  0  0
   -2.2305   -1.0928   -0.9417 N   0  0  0  0  0
    0.5111   -5.2557   -2.6170 N   0  0  0  0  0
   -3.9165    1.5371    0.9791 N   0  0  0  0  0
    2.1798    1.2600   -0.1123 N   0  0  0  0  0
   -2.7107   -3.6049   -7.2910 N   0  0  0  0  0
   -1.9018   -3.3060   -1.8361 N   0  0  0  0  0
   -0.7926    1.6743    0.5330 N   0  0  0  0  0
    6.1523   -0.2342    1.8678 N   0  0  0  0  0
    3.2313   -1.0843   -1.9162 O   0  0  0  0  0
    1.0587    1.6058   -2.1541 O   0  0  0  0  0
    4.7206    0.6520   -1.9391 O   0  0  0  0  0
   -0.0111   -2.1694   -2.7236 O   0  0  0  0  0
   -1.9833    2.2923   -1.3915 O   0  0  0  0  0
    0.8532   -4.7960   -1.3377 O   0  0  0  0  0
   -3.6026    2.8860    1.1954 O   0  0  0  0  0
   -1.2143   -5.7572   -6.8390 S   0  0  0  0  0
   -4.0031   -2.8722   -0.3300 S   0  0  0  0  0
    1.4708    0.7791    2.4007 S   0  0  0  0  0
  1 42  1  0  0  0
  2 43  1  0  0  0
  3 10  1  0  0  0
  3 26  1  0  0  0
  4 11  1  0  0  0
  4 27  1  0  0  0
  5 31  1  0  0  0
  5 42  1  0  0  0
  6 32  1  0  0  0
  6 43  1  0  0  0
  7 12  1  0  0  0
  7 30  1  0  0  0
  9 30  1  0  0  0
 10 13  1  0  0  0
 11 14  1  0  0  0
 12 35  1  0  0  0
 13 32  1  0  0  0
 14 33  1  0  0  0
 15  8  1  0  0  0
 15 44  1  0  0  0
 16 17  1  0  0  0
 16 18  1  0  0  0
 17 19  1  0  0  0
 18 34  1  0  0  0
 19 34  1  0  0  0
 20  9  1  0  0  0
 20 21  1  0  0  0
 20 33  1  0  0  0
 21 30  1  0  0  0
 21 44  1  0  0  0
 22 34  1  0  0  0
 23 40  1  0  0  0
 24 41  1  0  0  0
 25  8  1  0  0  0
 25 34  1  0  0  0
 28 40  1  0  0  0
 29 41  1  0  0  0
  1  3  2  0  0  0
  2  4  2  0  0  0
  5 26  2  0  0  0
  6 27  2  0  0  0
  7  8  2  0  0  0
  9 36  2  0  0  0
 10 28  2  0  0  0
 11 29  2  0  0  0
 12 37  2  0  0  0
 13 38  2  0  0  0
 14 39  2  0  0  0
M  CHG  2  34   1  35  -1
M  END
> <rmsd>
0.401332736

$$$$
ZINC77271156


 44 48  0  0  0  0  0  0  0  0999 V2000
   -1.3555   -6.2393   -5.0783 C   0  0  0  0  0
   -4.4871   -1.1688    0.4491 C   0  0  0  0  0
   -1.5491   -5.0597   -4.3904 C   0  0  0  0  0
   -3.4008   -0.4804   -0.0491 C   0  0  0  0  0
   -2.7092   -4.5860   -6.1904 C   0  0  0  0  0
   -2.9994   -2.4343   -0.9609 C   0  0  0  0  0
    3.0784   -0.1617   -0.2858 C   0  0  0  0  0
    3.6275   -0.6216    0.8636 C   0  0  0  0  0
    1.1601    1.2780   -1.1154 C   0  0  0  0  0
   -0.9892   -4.7893   -3.0657 C   0  0  0  0  0
   -3.1245    0.9524    0.2405 C   0  0  0  0  0
    3.5204   -0.7399   -1.6250 C   0  0  0  0  0
   -1.2877   -3.4527   -2.4389 C   0  0  0  0  0
   -1.9033    1.5947   -0.3632 C   0  0  0  0  0
    3.1246   -0.2283    2.2508 C   0  0  0  0  0
    6.9772   -1.8146    3.6660 C   0  0  0  0  0
    7.3681   -2.7457    2.5363 C   0  0  0  0  0
    5.7355   -1.1183    3.1371 C   0  0  0  0  0
    7.1886   -1.8795    1.3037 C   0  0  0  0  0
    0.4972    2.0146    0.0835 C   0  0  0  0  0
    1.7363    1.5616    0.8860 C   0  0  0  0  0
    6.1269    0.4117    1.1501 C   0  0  0  0  0
    0.9651   -6.1959   -0.5913 C   0  0  0  0  0
   -4.3896    3.6424    1.9999 C   0  0  0  0  0
    4.7860   -1.5870    0.9270 C   0  0  0  0  0
   -2.3247   -4.1103   -5.0267 N   0  0  0  0  0
   -2.5465   -1.2045   -0.8575 N   0  0  0  0  0
   -0.2555   -5.6633   -2.4464 N   0  0  0  0  0
   -3.9159    1.6417    1.0059 N   0  0  0  0  0
    2.0858    0.7649   -0.2762 N   0  0  0  0  0
   -3.4868   -3.9077   -7.0755 N   0  0  0  0  0
   -2.4522   -3.4717   -1.6682 N   0  0  0  0  0
   -0.8112    1.4746    0.4501 N   0  0  0  0  0
    5.9782   -1.0086    1.6313 N   0  0  0  0  0
    2.8538   -1.7344   -2.0137 O   0  0  0  0  0
    0.9253    1.1321   -2.2921 O   0  0  0  0  0
    4.4918   -0.1441   -2.1597 O   0  0  0  0  0
   -0.5009   -2.5485   -2.6657 O   0  0  0  0  0
   -2.0120    2.1236   -1.4578 O   0  0  0  0  0
    0.1739   -5.1872   -1.1997 O   0  0  0  0  0
   -3.4739    2.9636    1.1544 O   0  0  0  0  0
   -2.1748   -6.1687   -6.5833 S   0  0  0  0  0
   -4.4483   -2.7888   -0.1124 S   0  0  0  0  0
    1.4301    0.4494    2.2772 S   0  0  0  0  0
  1 42  1  0  0  0
  2 43  1  0  0  0
  3 10  1  0  0  0
  3 26  1  0  0  0
  4 11  1  0  0  0
  4 27  1  0  0  0
  5 31  1  0  0  0
  5 42  1  0  0  0
  6 32  1  0  0  0
  6 43  1  0  0  0
  7 12  1  0  0  0
  7 30  1  0  0  0
  9 30  1  0  0  0
 10 13  1  0  0  0
 11 14  1  0  0  0
 12 35  1  0  0  0
 13 32  1  0  0  0
 14 33  1  0  0  0
 15  8  1  0  0  0
 15 44  1  0  0  0
 16 17  1  0  0  0
 16 18  1  0  0  0
 17 19  1  0  0  0
 18 34  1  0  0  0
 19 34  1  0  0  0
 20  9  1  0  0  0
 20 21  1  0  0  0
 20 33  1  0  0  0
 21 30  1  0  0  0
 21 44  1  0  0  0
 22 34  1  0  0  0
 23 40  1  0  0  0
 24 41  1  0  0  0
 25  8  1  0  0  0
 25 34  1  0  0  0
 28 40  1  0  0  0
 29 41  1  0  0  0
  1  3  2  0  0  0
  2  4  2  0  0  0
  5 26  2  0  0  0
  6 27  2  0  0  0
  7  8  2  0  0  0
  9 36  2  0  0  0
 10 28  2  0  0  0
 11 29  2  0  0  0
 12 37  2  0  0  0
 13 38  2  0  0  0
 14 39  2  0  0  0
M  CHG  2  34   1  35  -1
M  END
> <rmsd>
0.102381237

$$$$
ZINC77271156


 44 48  0  0  0  0  0  0  0  0999 V2000
    0.3595   -5.4532   -1.0588 C   0  0  0  0  0
   -4.4872   -1.1684    0.4496 C   0  0  0  0  0
   -0.1598   -5.7259   -2.3070 C   0  0  0  0  0
   -3.4009   -0.4800   -0.0487 C   0  0  0  0  0
    0.8925   -7.6198   -1.9666 C   0  0  0  0  0
   -2.9995   -2.4338   -0.9604 C   0  0  0  0  0
    3.0783   -0.1612   -0.2855 C   0  0  0  0  0
    3.6274   -0.6212    0.8639 C   0  0  0  0  0
    1.1599    1.2784   -1.1151 C   0  0  0  0  0
   -0.9894   -4.7890   -3.0653 C   0  0  0  0  0
   -3.1246    0.9528    0.2409 C   0  0  0  0  0
    3.5203   -0.7395   -1.6247 C   0  0  0  0  0
   -1.2878   -3.4523   -2.4385 C   0  0  0  0  0
   -1.9034    1.5951   -0.3629 C   0  0  0  0  0
    3.1245   -0.2279    2.2511 C   0  0  0  0  0
    6.9772   -1.8141    3.6663 C   0  0  0  0  0
    7.3680   -2.7453    2.5366 C   0  0  0  0  0
    5.7354   -1.1178    3.1374 C   0  0  0  0  0
    7.1885   -1.8790    1.3040 C   0  0  0  0  0
    0.4971    2.0150    0.0839 C   0  0  0  0  0
    1.7362    1.5620    0.8864 C   0  0  0  0  0
    6.1268    0.4121    1.1504 C   0  0  0  0  0
   -2.7036   -4.4574   -6.0440 C   0  0  0  0  0
   -4.3897    3.6429    2.0002 C   0  0  0  0  0
    4.7859   -1.5866    0.9273 C   0  0  0  0  0
    0.1452   -6.9677   -2.8294 N   0  0  0  0  0
   -2.5466   -1.2041   -0.8571 N   0  0  0  0  0
   -1.4603   -5.0921   -4.2367 N   0  0  0  0  0
   -3.9160    1.6421    1.0063 N   0  0  0  0  0
    2.0856    0.7653   -0.2758 N   0  0  0  0  0
    1.3723   -8.8763   -2.1655 N   0  0  0  0  0
   -2.4523   -3.4713   -1.6678 N   0  0  0  0  0
   -0.8113    1.4750    0.4505 N   0  0  0  0  0
    5.9781   -1.0081    1.6316 N   0  0  0  0  0
    2.8537   -1.7340   -2.0133 O   0  0  0  0  0
    0.9252    1.1325   -2.2918 O   0  0  0  0  0
    4.4916   -0.1437   -2.1594 O   0  0  0  0  0
   -0.5010   -2.5481   -2.6653 O   0  0  0  0  0
   -2.0121    2.1240   -1.4575 O   0  0  0  0  0
   -2.2289   -4.0485   -4.7707 O   0  0  0  0  0
   -3.4740    2.9640    1.1548 O   0  0  0  0  0
    1.2665   -6.7998   -0.5063 S   0  0  0  0  0
   -4.4484   -2.7884   -0.1119 S   0  0  0  0  0
    1.4300    0.4498    2.2776 S   0  0  0  0  0
  1 42  1  0  0  0
  2 43  1  0  0  0
  3 10  1  0  0  0
  3 26  1  0  0  0
  4 11  1  0  0  0
  4 27  1  0  0  0
  5 31  1  0  0  0
  5 42  1  0  0  0
  6 32  1  0  0  0
  6 43  1  0  0  0
  7 12  1  0  0  0
  7 30  1  0  0  0
  9 30  1  0  0  0
 10 13  1  0  0  0
 11 14  1  0  0  0
 12 35  1  0  0  0
 13 32  1  0  0  0
 14 33  1  0  0  0
 15  8  1  0  0  0
 15 44  1  0  0  0
 16 17  1  0  0  0
 16 18  1  0  0  0
 17 19  1  0  0  0
 18 34  1  0  0  0
 19 34  1  0  0  0
 20  9  1  0  0  0
 20 21  1  0  0  0
 20 33  1  0  0  0
 21 30  1  0  0  0
 21 44  1  0  0  0
 22 34  1  0  0  0
 23 40  1  0  0  0
 24 41  1  0  0  0
 25  8  1  0  0  0
 25 34  1  0  0  0
 28 40  1  0  0  0
 29 41  1  0  0  0
  1  3  2  0  0  0
  2  4  2  0  0  0
  5 26  2  0  0  0
  6 27  2  0  0  0
  7  8  2  0  0  0
  9 36  2  0  0  0
 10 28  2  0  0  0
 11 29  2  0  0  0
 12 37  2  0  0  0
 13 38  2  0  0  0
 14 39  2  0  0  0
M  CHG  2  34   1  35  -1
M  END
> <rmsd>
0.102380998

$$$$
ZINC77271156


 44 48  0  0  0  0  0  0  0  0999 V2000
    1.0576   -5.0498   -1.2004 C   0  0  0  0  0
   -4.2090   -1.2870    0.2928 C   0  0  0  0  0
    0.6075   -5.3153   -2.4767 C   0  0  0  0  0
   -3.1743   -0.4830   -0.1375 C   0  0  0  0  0
    1.8169   -7.1193   -2.1716 C   0  0  0  0  0
   -2.5653   -2.3525   -1.1092 C   0  0  0  0  0
    3.2527    0.4284   -0.1208 C   0  0  0  0  0
    3.8029   -0.0283    1.0294 C   0  0  0  0  0
    1.2394    1.7228   -0.9644 C   0  0  0  0  0
   -0.2786   -4.4258   -3.2282 C   0  0  0  0  0
   -3.0403    0.9553    0.2177 C   0  0  0  0  0
    3.7904   -0.0507   -1.4642 C   0  0  0  0  0
   -0.7190   -3.1492   -2.5613 C   0  0  0  0  0
   -1.8636    1.7300   -0.3147 C   0  0  0  0  0
    3.2200    0.2592    2.4112 C   0  0  0  0  0
    7.1523   -1.0315    3.9056 C   0  0  0  0  0
    7.6643   -1.8751    2.7558 C   0  0  0  0  0
    5.8703   -0.4284    3.3585 C   0  0  0  0  0
    7.4476   -0.9773    1.5521 C   0  0  0  0  0
    0.4721    2.3455    0.2369 C   0  0  0  0  0
    1.7200    1.9725    1.0666 C   0  0  0  0  0
    6.1862    1.2132    1.4486 C   0  0  0  0  0
   -1.9154   -4.1248   -6.2533 C   0  0  0  0  0
   -4.6046    3.4437    2.0324 C   0  0  0  0  0
    5.0422   -0.8871    1.0981 C   0  0  0  0  0
    1.0422   -6.5014   -3.0354 N   0  0  0  0  0
   -2.2307   -1.0924   -0.9413 N   0  0  0  0  0
   -0.6803   -4.7205   -4.4272 N   0  0  0  0  0
   -3.9167    1.5375    0.9795 N   0  0  0  0  0
    2.1796    1.2604   -0.1119 N   0  0  0  0  0
    2.4161   -8.3179   -2.4013 N   0  0  0  0  0
   -1.9020   -3.3056   -1.8357 N   0  0  0  0  0
   -0.7928    1.6747    0.5333 N   0  0  0  0  0
    6.1522   -0.2338    1.8682 N   0  0  0  0  0
    3.2311   -1.0839   -1.9158 O   0  0  0  0  0
    1.0585    1.6062   -2.1538 O   0  0  0  0  0
    4.7204    0.6524   -1.9388 O   0  0  0  0  0
   -0.0113   -2.1690   -2.7232 O   0  0  0  0  0
   -1.9835    2.2927   -1.3911 O   0  0  0  0  0
   -1.5230   -3.7289   -4.9483 O   0  0  0  0  0
   -3.6028    2.8865    1.1957 O   0  0  0  0  0
    2.0652   -6.3313   -0.6675 S   0  0  0  0  0
   -4.0032   -2.8718   -0.3296 S   0  0  0  0  0
    1.4706    0.7796    2.4011 S   0  0  0  0  0
  1 42  1  0  0  0
  2 43  1  0  0  0
  3 10  1  0  0  0
  3 26  1  0  0  0
  4 11  1  0  0  0
  4 27  1  0  0  0
  5 31  1  0  0  0
  5 42  1  0  0  0
  6 32  1  0  0  0
  6 43  1  0  0  0
  7 12  1  0  0  0
  7 30  1  0  0  0
  9 30  1  0  0  0
 10 13  1  0  0  0
 11 14  1  0  0  0
 12 35  1  0  0  0
 13 32  1  0  0  0
 14 33  1  0  0  0
 15  8  1  0  0  0
 15 44  1  0  0  0
 16 17  1  0  0  0
 16 18  1  0  0  0
 17 19  1  0  0  0
 18 34  1  0  0  0
 19 34  1  0  0  0
 20  9  1  0  0  0
 20 21  1  0  0  0
 20 33  1  0  0  0
 21 30  1  0  0  0
 21 44  1  0  0  0
 22 34  1  0  0  0
 23 40  1  0  0  0
 24 41  1  0  0  0
 25  8  1  0  0  0
 25 34  1  0  0  0
 28 40  1  0  0  0
 29 41  1  0  0  0
  1  3  2  0  0  0
  2  4  2  0  0  0
  5 26  2  0  0  0
  6 27  2  0  0  0
  7  8  2  0  0  0
  9 36  2  0  0  0
 10 28  2  0  0  0
 11 29  2  0  0  0
 12 37  2  0  0  0
 13 38  2  0  0  0
 14 39  2  0  0  0
M  CHG  2  34   1  35  -1
M  END
> <rmsd>
0.401167423

$$$$
ZINC77271156


 44 48  0  0  0  0  0  0  0  0999 V2000
   -2.3296   -4.1636   -5.0899 C   0  0  0  0  0
   -4.4872   -1.1688    0.4496 C   0  0  0  0  0
   -1.5492   -5.0598   -4.3899 C   0  0  0  0  0
   -3.4009   -0.4804   -0.0487 C   0  0  0  0  0
   -1.9089   -6.2676   -6.1849 C   0  0  0  0  0
   -2.9996   -2.4342   -0.9604 C   0  0  0  0  0
    3.0783   -0.1616   -0.2854 C   0  0  0  0  0
    3.6274   -0.6216    0.8640 C   0  0  0  0  0
    1.1599    1.2780   -1.1151 C   0  0  0  0  0
   -0.9894   -4.7893   -3.0653 C   0  0  0  0  0
   -3.1246    0.9524    0.2409 C   0  0  0  0  0
    3.5203   -0.7399   -1.6247 C   0  0  0  0  0
   -1.2878   -3.4527   -2.4385 C   0  0  0  0  0
   -1.9035    1.5947   -0.3628 C   0  0  0  0  0
    3.1245   -0.2283    2.2511 C   0  0  0  0  0
    6.9772   -1.8145    3.6664 C   0  0  0  0  0
    7.3680   -2.7457    2.5366 C   0  0  0  0  0
    5.7354   -1.1182    3.1375 C   0  0  0  0  0
    7.1885   -1.8794    1.3040 C   0  0  0  0  0
    0.4971    2.0146    0.0839 C   0  0  0  0  0
    1.7362    1.5616    0.8864 C   0  0  0  0  0
    6.1268    0.4117    1.1505 C   0  0  0  0  0
    0.9650   -6.1958   -0.5909 C   0  0  0  0  0
   -4.3897    3.6425    2.0003 C   0  0  0  0  0
    4.7859   -1.5870    0.9274 C   0  0  0  0  0
   -1.3073   -6.2670   -5.0160 N   0  0  0  0  0
   -2.5466   -1.2045   -0.8571 N   0  0  0  0  0
   -0.2556   -5.6633   -2.4460 N   0  0  0  0  0
   -3.9161    1.6417    1.0063 N   0  0  0  0  0
    2.0856    0.7649   -0.2758 N   0  0  0  0  0
   -1.8763   -7.3057   -7.0622 N   0  0  0  0  0
   -2.4523   -3.4717   -1.6678 N   0  0  0  0  0
   -0.8113    1.4746    0.4505 N   0  0  0  0  0
    5.9781   -1.0085    1.6316 N   0  0  0  0  0
    2.8537   -1.7344   -2.0133 O   0  0  0  0  0
    0.9252    1.1321   -2.2918 O   0  0  0  0  0
    4.4916   -0.1441   -2.1593 O   0  0  0  0  0
   -0.5011   -2.5485   -2.6652 O   0  0  0  0  0
   -2.0121    2.1236   -1.4574 O   0  0  0  0  0
    0.1738   -5.1872   -1.1993 O   0  0  0  0  0
   -3.4740    2.9636    1.1548 O   0  0  0  0  0
   -2.7828   -4.8489   -6.5953 S   0  0  0  0  0
   -4.4484   -2.7888   -0.1119 S   0  0  0  0  0
    1.4300    0.4494    2.2776 S   0  0  0  0  0
  1 42  1  0  0  0
  2 43  1  0  0  0
  3 10  1  0  0  0
  3 26  1  0  0  0
  4 11  1  0  0  0
  4 27  1  0  0  0
  5 31  1  0  0  0
  5 42  1  0  0  0
  6 32  1  0  0  0
  6 43  1  0  0  0
  7 12  1  0  0  0
  7 30  1  0  0  0
  9 30  1  0  0  0
 10 13  1  0  0  0
 11 14  1  0  0  0
 12 35  1  0  0  0
 13 32  1  0  0  0
 14 33  1  0  0  0
 15  8  1  0  0  0
 15 44  1  0  0  0
 16 17  1  0  0  0
 16 18  1  0  0  0
 17 19  1  0  0  0
 18 34  1  0  0  0
 19 34  1  0  0  0
 20  9  1  0  0  0
 20 21  1  0  0  0
 20 33  1  0  0  0
 21 30  1  0  0  0
 21 44  1  0  0  0
 22 34  1  0  0  0
 23 40  1  0  0  0
 24 41  1  0  0  0
 25  8  1  0  0  0
 25 34  1  0  0  0
 28 40  1  0  0  0
 29 41  1  0  0  0
  1  3  2  0  0  0
  2  4  2  0  0  0
  5 26  2  0  0  0
  6 27  2  0  0  0
  7  8  2  0  0  0
  9 36  2  0  0  0
 10 28  2  0  0  0
 11 29  2  0  0  0
 12 37  2  0  0  0
 13 38  2  0  0  0
 14 39  2  0  0  0
M  CHG  2  34   1  35  -1
M  END
> <rmsd>
0.102381244

$$$$
ZINC77271156


 44 48  0  0  0  0  0  0  0  0999 V2000
   -1.6020   -3.8390   -5.2753 C   0  0  0  0  0
   -4.2090   -1.2874    0.2928 C   0  0  0  0  0
   -0.7667   -4.6899   -4.5822 C   0  0  0  0  0
   -3.1743   -0.4834   -0.1375 C   0  0  0  0  0
   -0.9540   -5.8483   -6.4351 C   0  0  0  0  0
   -2.5653   -2.3529   -1.1092 C   0  0  0  0  0
    3.2528    0.4280   -0.1208 C   0  0  0  0  0
    3.8030   -0.0287    1.0294 C   0  0  0  0  0
    1.2394    1.7224   -0.9644 C   0  0  0  0  0
   -0.2786   -4.4262   -3.2282 C   0  0  0  0  0
   -3.0402    0.9549    0.2178 C   0  0  0  0  0
    3.7905   -0.0511   -1.4642 C   0  0  0  0  0
   -0.7190   -3.1496   -2.5613 C   0  0  0  0  0
   -1.8635    1.7296   -0.3147 C   0  0  0  0  0
    3.2200    0.2588    2.4112 C   0  0  0  0  0
    7.1523   -1.0319    3.9056 C   0  0  0  0  0
    7.6643   -1.8755    2.7558 C   0  0  0  0  0
    5.8703   -0.4288    3.3585 C   0  0  0  0  0
    7.4476   -0.9777    1.5521 C   0  0  0  0  0
    0.4721    2.3451    0.2369 C   0  0  0  0  0
    1.7200    1.9722    1.0666 C   0  0  0  0  0
    6.1862    1.2128    1.4486 C   0  0  0  0  0
    1.7126   -5.7539   -0.7396 C   0  0  0  0  0
   -4.6046    3.4433    2.0324 C   0  0  0  0  0
    5.0422   -0.8875    1.0981 C   0  0  0  0  0
   -0.3943   -5.8428   -5.2455 N   0  0  0  0  0
   -2.2307   -1.0928   -0.9412 N   0  0  0  0  0
    0.5110   -5.2558   -2.6166 N   0  0  0  0  0
   -3.9166    1.5371    0.9795 N   0  0  0  0  0
    2.1797    1.2600   -0.1119 N   0  0  0  0  0
   -0.7971   -6.8414   -7.3503 N   0  0  0  0  0
   -1.9019   -3.3060   -1.8357 N   0  0  0  0  0
   -0.7928    1.6743    0.5333 N   0  0  0  0  0
    6.1522   -0.2342    1.8682 N   0  0  0  0  0
    3.2311   -1.0843   -1.9158 O   0  0  0  0  0
    1.0585    1.6058   -2.1538 O   0  0  0  0  0
    4.7205    0.6520   -1.9388 O   0  0  0  0  0
   -0.0112   -2.1694   -2.7232 O   0  0  0  0  0
   -1.9835    2.2923   -1.3911 O   0  0  0  0  0
    0.8531   -4.7960   -1.3372 O   0  0  0  0  0
   -3.6027    2.8861    1.1957 O   0  0  0  0  0
   -1.9399   -4.4982   -6.8221 S   0  0  0  0  0
   -4.0032   -2.8722   -0.3296 S   0  0  0  0  0
    1.4706    0.7792    2.4011 S   0  0  0  0  0
  1 42  1  0  0  0
  2 43  1  0  0  0
  3 10  1  0  0  0
  3 26  1  0  0  0
  4 11  1  0  0  0
  4 27  1  0  0  0
  5 31  1  0  0  0
  5 42  1  0  0  0
  6 32  1  0  0  0
  6 43  1  0  0  0
  7 12  1  0  0  0
  7 30  1  0  0  0
  9 30  1  0  0  0
 10 13  1  0  0  0
 11 14  1  0  0  0
 12 35  1  0  0  0
 13 32  1  0  0  0
 14 33  1  0  0  0
 15  8  1  0  0  0
 15 44  1  0  0  0
 16 17  1  0  0  0
 16 18  1  0  0  0
 17 19  1  0  0  0
 18 34  1  0  0  0
 19 34  1  0  0  0
 20  9  1  0  0  0
 20 21  1  0  0  0
 20 33  1  0  0  0
 21 30  1  0  0  0
 21 44  1  0  0  0
 22 34  1  0  0  0
 23 40  1  0  0  0
 24 41  1  0  0  0
 25  8  1  0  0  0
 25 34  1  0  0  0
 28 40  1  0  0  0
 29 41  1  0  0  0
  1  3  2  0  0  0
  2  4  2  0  0  0
  5 26  2  0  0  0
  6 27  2  0  0  0
  7  8  2  0  0  0
  9 36  2  0  0  0
 10 28  2  0  0  0
 11 29  2  0  0  0
 12 37  2  0  0  0
 13 38  2  0  0  0
 14 39  2  0  0  0
M  CHG  2  34   1  35  -1
M  END
> <rmsd>
0.401167542

$$$$
