5479529
  -OEChem-10202402593D

 45 47  0     1  0  0  0  0  0999 V2000
   -0.7028    1.1939   -1.6963 S   0  0  0  0  0  0  0  0  0  0  0  0
    0.2661    0.0799    2.7120 O   0  0  0  0  0  0  0  0  0  0  0  0
   -5.2666    0.3533   -0.9703 O   0  0  0  0  0  0  0  0  0  0  0  0
   -2.8890   -0.2047    2.9069 O   0  0  0  0  0  0  0  0  0  0  0  0
   -2.7613   -2.1368    1.6900 O   0  0  0  0  0  0  0  0  0  0  0  0
    3.2661    0.8190    1.8701 O   0  0  0  0  0  0  0  0  0  0  0  0
    4.9375   -1.8039   -1.3185 O   0  0  0  0  0  0  0  0  0  0  0  0
    4.7147    2.2778   -0.4803 O   0  0  0  0  0  0  0  0  0  0  0  0
   -6.8707   -1.2836   -1.1880 O   0  0  0  0  0  0  0  0  0  0  0  0
   -1.0940    0.6581    0.8745 N   0  0  0  0  0  0  0  0  0  0  0  0
    1.8251    1.1082    0.0400 N   0  0  0  0  0  0  0  0  0  0  0  0
    4.8913    0.9338   -0.8375 N   0  0  0  0  0  0  0  0  0  0  0  0
   -7.3956    0.9360   -1.4789 N   0  0  0  0  0  0  0  0  0  0  0  0
   -0.6787    1.7563    0.0211 C   0  0  1  0  0  0  0  0  0  0  0  0
    0.6814    1.6810    0.7490 C   0  0  1  0  0  0  0  0  0  0  0  0
   -0.0264    0.6758    1.7018 C   0  0  0  0  0  0  0  0  0  0  0  0
   -2.2487   -0.0357    0.7036 C   0  0  0  0  0  0  0  0  0  0  0  0
   -2.9607    0.0482   -0.4455 C   0  0  0  0  0  0  0  0  0  0  0  0
   -2.4913    0.8318   -1.6693 C   0  0  0  0  0  0  0  0  0  0  0  0
   -4.2912   -0.6257   -0.6806 C   0  0  0  0  0  0  0  0  0  0  0  0
   -2.6566   -0.9314    1.7961 C   0  0  0  0  0  0  0  0  0  0  0  0
    2.9950    0.7396    0.6825 C   0  0  0  0  0  0  0  0  0  0  0  0
    4.0249    0.1648   -0.2514 C   0  0  0  0  0  0  0  0  0  0  0  0
    4.0086   -1.2809   -0.4759 C   0  0  0  0  0  0  0  0  0  0  0  0
   -6.5393   -0.1031   -1.2101 C   0  0  0  0  0  0  0  0  0  0  0  0
    3.1961   -2.2725    0.0228 C   0  0  0  0  0  0  0  0  0  0  0  0
    3.6554   -3.4824   -0.5502 C   0  0  0  0  0  0  0  0  0  0  0  0
    4.7157   -3.1440   -1.3581 C   0  0  0  0  0  0  0  0  0  0  0  0
    5.6950    3.0471   -1.1594 C   0  0  0  0  0  0  0  0  0  0  0  0
   -1.2353    2.6810    0.2145 H   0  0  0  0  0  0  0  0  0  0  0  0
    0.9533    2.6193    1.2471 H   0  0  0  0  0  0  0  0  0  0  0  0
   -2.7000    0.2597   -2.5796 H   0  0  0  0  0  0  0  0  0  0  0  0
   -3.0414    1.7769   -1.7338 H   0  0  0  0  0  0  0  0  0  0  0  0
    1.7740    0.9693   -0.9665 H   0  0  0  0  0  0  0  0  0  0  0  0
   -4.1987   -1.3212   -1.5240 H   0  0  0  0  0  0  0  0  0  0  0  0
   -4.6227   -1.1996    0.1901 H   0  0  0  0  0  0  0  0  0  0  0  0
   -3.1647   -0.7649    3.6635 H   0  0  0  0  0  0  0  0  0  0  0  0
    2.3732   -2.1486    0.7125 H   0  0  0  0  0  0  0  0  0  0  0  0
    3.2624   -4.4766   -0.3939 H   0  0  0  0  0  0  0  0  0  0  0  0
    5.3818   -3.7091   -1.9936 H   0  0  0  0  0  0  0  0  0  0  0  0
   -8.3768    0.7739   -1.6790 H   0  0  0  0  0  0  0  0  0  0  0  0
   -7.0732    1.8979   -1.4857 H   0  0  0  0  0  0  0  0  0  0  0  0
    5.5627    4.0970   -0.8850 H   0  0  0  0  0  0  0  0  0  0  0  0
    5.5726    2.9490   -2.2426 H   0  0  0  0  0  0  0  0  0  0  0  0
    6.6999    2.7304   -0.8632 H   0  0  0  0  0  0  0  0  0  0  0  0
  1 14  1  0  0  0  0
  1 19  1  0  0  0  0
  2 16  2  0  0  0  0
  3 20  1  0  0  0  0
  3 25  1  0  0  0  0
  4 21  1  0  0  0  0
  4 37  1  0  0  0  0
  5 21  2  0  0  0  0
  6 22  2  0  0  0  0
  7 24  1  0  0  0  0
  7 28  1  0  0  0  0
  8 12  1  0  0  0  0
  8 29  1  0  0  0  0
  9 25  2  0  0  0  0
 10 14  1  0  0  0  0
 10 16  1  0  0  0  0
 10 17  1  0  0  0  0
 11 15  1  0  0  0  0
 11 22  1  0  0  0  0
 11 34  1  0  0  0  0
 12 23  2  0  0  0  0
 13 25  1  0  0  0  0
 13 41  1  0  0  0  0
 13 42  1  0  0  0  0
 14 15  1  0  0  0  0
 14 30  1  0  0  0  0
 15 16  1  0  0  0  0
 15 31  1  0  0  0  0
 17 18  2  0  0  0  0
 17 21  1  0  0  0  0
 18 19  1  0  0  0  0
 18 20  1  0  0  0  0
 19 32  1  0  0  0  0
 19 33  1  0  0  0  0
 20 35  1  0  0  0  0
 20 36  1  0  0  0  0
 22 23  1  0  0  0  0
 23 24  1  0  0  0  0
 24 26  2  0  0  0  0
 26 27  1  0  0  0  0
 26 38  1  0  0  0  0
 27 28  2  0  0  0  0
 27 39  1  0  0  0  0
 28 40  1  0  0  0  0
 29 43  1  0  0  0  0
 29 44  1  0  0  0  0
 29 45  1  0  0  0  0
M  END
> <PUBCHEM_COMPOUND_CID>
5479529

> <PUBCHEM_CONFORMER_RMSD>
1

> <PUBCHEM_CONFORMER_DIVERSEORDER>
1
34
29
10
6
28
11
25
33
13
21
19
18
30
32
26
2
31
17
16
3
20
24
27
14
23
22
7
12
8
5
4
9
15

> <PUBCHEM_MMFF94_PARTIAL_CHARGES>
36
1 -0.45
10 -0.39
11 -0.65
12 -0.51
13 -0.8
14 0.44
15 0.28
16 0.58
17 0.12
18 -0.28
19 0.37
2 -0.57
20 0.42
21 0.71
22 0.63
23 0.53
24 0.05
25 0.78
26 -0.15
27 -0.15
28 -0.01
29 0.28
3 -0.43
34 0.37
37 0.5
38 0.15
39 0.15
4 -0.65
40 0.15
41 0.37
42 0.37
5 -0.57
6 -0.57
7 -0.28
8 -0.22
9 -0.57

> <PUBCHEM_EFFECTIVE_ROTOR_COUNT>
9.6

> <PUBCHEM_PHARMACOPHORE_FEATURES>
13
1 11 donor
1 12 acceptor
1 13 donor
1 2 acceptor
1 4 acceptor
1 5 acceptor
1 6 acceptor
1 7 acceptor
1 9 acceptor
3 4 5 21 anion
4 10 14 15 16 rings
5 7 24 26 27 28 rings
6 1 10 14 17 18 19 rings

> <PUBCHEM_HEAVY_ATOM_COUNT>
29

> <PUBCHEM_ATOM_DEF_STEREO_COUNT>
2

> <PUBCHEM_ATOM_UDEF_STEREO_COUNT>
0

> <PUBCHEM_BOND_DEF_STEREO_COUNT>
1

> <PUBCHEM_BOND_UDEF_STEREO_COUNT>
0

> <PUBCHEM_ISOTOPIC_ATOM_COUNT>
0

> <PUBCHEM_COMPONENT_COUNT>
1

> <PUBCHEM_CACTVS_TAUTO_COUNT>
4

> <PUBCHEM_CONFORMER_ID>
00539C6900000001

> <PUBCHEM_MMFF94_ENERGY>
61.6098

> <PUBCHEM_FEATURE_SELFOVERLAP>
66.295

> <PUBCHEM_SHAPE_FINGERPRINT>
10319926 262 13182754601528729719
11135926 11 18269292282365668856
13533116 47 18059852861477422727
13782708 43 17202464750390937823
13911987 19 18122079838812867708
14790565 3 17096910401152887893
15183329 4 18271803502462316973
15475509 8 18114180771063459589
15537594 2 17774998033251683054
17349148 13 16272209699983886733
20645477 70 18411133615670165718
21285901 2 18188198828102288453
21344244 181 18334294241411270747
21641784 216 16154261703364662789
235170 7 18041008353659535646
23557571 272 17241344567537739672
23559900 14 17676784101619620062
3004659 81 18342171120873428230
345986 75 16773792563220483170
3472631 163 16371010745202935148
34797466 226 18114176449888379901
404807 14 17764596413009800503
4093350 32 18335136531040900269
46194498 28 18261105262539542788
58260988 647 18342176618742881199
59682541 52 18341883083381589029
960060 61 18413388735150705340

> <PUBCHEM_SHAPE_MULTIPOLES>
533.78
15.16
2.98
2.18
14.08
1.49
1.31
2.11
-9.59
-6.54
-1.07
1.59
0.04
1.15

> <PUBCHEM_SHAPE_SELFOVERLAP>
1124.925

> <PUBCHEM_SHAPE_VOLUME>
301

> <PUBCHEM_COORDINATE_TYPE>
2
5
10

$$$$
