6915944
 OpenBabel10202403123D

 39 41  0  0  1  0  0  0  0  0999 V2000
    1.4807    0.4421    2.2906 S   0  0  0  0  0  0  0  0  0  0  0  0
   -3.3329   -2.8344   -0.9116 S   0  0  0  0  0  0  0  0  0  0  0  0
    0.9866    1.1693   -2.2754 O   0  0  0  0  0  0  0  0  0  0  0  0
    2.8181   -1.6795   -1.9448 O   0  0  0  0  0  0  0  0  0  0  0  0
    4.4693   -0.1270   -2.2497 O   0  0  0  0  0  0  0  0  0  0  0  0
   -1.9549    2.1230   -1.4489 O   0  0  0  0  0  0  0  0  0  0  0  0
   -3.4798    2.9290    1.1290 O   0  0  0  0  0  0  0  0  0  0  0  0
    2.1450    0.7806   -0.2573 N   0  0  0  0  0  0  0  0  0  0  0  0
   -0.7591    1.4629    0.4603 N   0  0  0  0  0  0  0  0  0  0  0  0
   -3.9095    1.6091    0.9669 N   0  0  0  0  0  0  0  0  0  0  0  0
   -4.5409   -1.0275    0.4878 N   0  0  0  0  0  0  0  0  0  0  0  0
   -5.5948   -3.1438    0.4521 N   0  0  0  0  0  0  0  0  0  0  0  0
    1.7853    1.5661    0.9096 C   0  0  1  0  0  0  0  0  0  0  0  0
    0.5465    2.0169    0.1059 C   0  0  1  0  0  0  0  0  0  0  0  0
    1.2209    1.2976   -1.0966 C   0  0  0  0  0  0  0  0  0  0  0  0
    3.1499   -0.1349   -0.2725 C   0  0  0  0  0  0  0  0  0  0  0  0
    3.1833   -0.2193    2.2685 C   0  0  0  0  0  0  0  0  0  0  0  0
    3.6938   -0.5979    0.8794 C   0  0  0  0  0  0  0  0  0  0  0  0
    3.5746   -0.6213   -1.5964 C   0  0  0  0  0  0  0  0  0  0  0  0
   -1.8685    1.5784   -0.3601 C   0  0  0  0  0  0  0  0  0  0  0  0
    4.8101   -1.5226    0.9474 C   0  0  0  0  0  0  0  0  0  0  0  0
   -3.0986    0.9260    0.2165 C   0  0  0  0  0  0  0  0  0  0  0  0
    5.3205   -1.9579    2.0928 C   0  0  0  0  0  0  0  0  0  0  0  0
   -3.4144   -0.4800   -0.0572 C   0  0  0  0  0  0  0  0  0  0  0  0
   -2.6281   -1.2726   -0.8375 C   0  0  0  0  0  0  0  0  0  0  0  0
   -4.6034   -2.2824    0.1012 C   0  0  0  0  0  0  0  0  0  0  0  0
    2.4980    2.3734    1.1166 H   0  0  0  0  0  0  0  0  0  0  0  0
    0.4933    3.1043   -0.0250 H   0  0  0  0  0  0  0  0  0  0  0  0
   -0.8733    0.9711    1.3436 H   0  0  0  0  0  0  0  0  0  0  0  0
    3.0840   -1.0924    2.9193 H   0  0  0  0  0  0  0  0  0  0  0  0
    3.8512    0.5106    2.7394 H   0  0  0  0  0  0  0  0  0  0  0  0
    5.2376   -1.8905    0.0195 H   0  0  0  0  0  0  0  0  0  0  0  0
    6.1496   -2.6607    2.0542 H   0  0  0  0  0  0  0  0  0  0  0  0
    5.0223   -1.6702    3.0916 H   0  0  0  0  0  0  0  0  0  0  0  0
    3.0668   -2.0384   -2.8233 H   0  0  0  0  0  0  0  0  0  0  0  0
   -1.7078   -1.0496   -1.3587 H   0  0  0  0  0  0  0  0  0  0  0  0
   -4.1772    3.2924    1.7004 H   0  0  0  0  0  0  0  0  0  0  0  0
   -6.3640   -2.8585    1.0491 H   0  0  0  0  0  0  0  0  0  0  0  0
   -5.6049   -4.1064    0.1313 H   0  0  0  0  0  0  0  0  0  0  0  0
  1 13  1  0  0  0  0
  1 17  1  0  0  0  0
  2 25  1  0  0  0  0
  2 26  1  0  0  0  0
  3 15  2  0  0  0  0
  4 19  1  0  0  0  0
  4 35  1  0  0  0  0
  5 19  2  0  0  0  0
  6 20  2  0  0  0  0
  7 10  1  0  0  0  0
  7 37  1  0  0  0  0
  8 13  1  0  0  0  0
  8 15  1  0  0  0  0
  8 16  1  0  0  0  0
  9 14  1  0  0  0  0
  9 20  1  0  0  0  0
  9 29  1  0  0  0  0
 10 22  2  0  0  0  0
 11 24  1  0  0  0  0
 11 26  2  0  0  0  0
 12 26  1  0  0  0  0
 12 38  1  0  0  0  0
 12 39  1  0  0  0  0
 13 14  1  0  0  0  0
 13 27  1  1  0  0  0
 14 15  1  0  0  0  0
 14 28  1  6  0  0  0
 16 18  2  0  0  0  0
 16 19  1  0  0  0  0
 17 18  1  0  0  0  0
 17 30  1  0  0  0  0
 17 31  1  0  0  0  0
 18 21  1  0  0  0  0
 20 22  1  0  0  0  0
 21 23  2  0  0  0  0
 21 32  1  0  0  0  0
 22 24  1  0  0  0  0
 23 33  1  0  0  0  0
 23 34  1  0  0  0  0
 24 25  2  0  0  0  0
 25 36  1  0  0  0  0
M  END
>  <PUBCHEM_COMPOUND_CID>
6915944

>  <PUBCHEM_CONFORMER_RMSD>
0.8

>  <PUBCHEM_CONFORMER_DIVERSEORDER>
1
10
56
11
57
29
33
48
32
14
46
42
4
35
54
24
8
55
51
53
18
34
52
37
3
21
9
49
44
15
28
41
5
12
36
20
38
47
7
30
2
13
45
23
39
50
22
6
40
25
26
16
43
17
31
19
27

>  <PUBCHEM_MMFF94_PARTIAL_CHARGES>
35
1 -0.45
10 -0.51
11 -0.57
12 -0.88
13 0.44
14 0.28
15 0.58
16 0.12
17 0.37
18 -0.14
19 0.71
2 -0.08
20 0.63
21 -0.15
22 0.54
23 -0.3
24 0.14
25 -0.11
26 0.46
29 0.37
3 -0.57
32 0.15
33 0.15
34 0.15
35 0.5
36 0.15
37 0.4
38 0.4
39 0.4
4 -0.65
5 -0.57
6 -0.57
7 -0.34
8 -0.39
9 -0.65

>  <PUBCHEM_EFFECTIVE_ROTOR_COUNT>
6.6

>  <PUBCHEM_PHARMACOPHORE_FEATURES>
14
1 10 acceptor
1 12 donor
1 23 hydrophobe
1 3 acceptor
1 4 acceptor
1 5 acceptor
1 6 acceptor
1 7 anion
1 9 donor
3 11 12 26 cation
3 4 5 19 anion
4 8 13 14 15 rings
5 2 11 24 25 26 rings
6 1 8 13 16 17 18 rings

>  <PUBCHEM_HEAVY_ATOM_COUNT>
26

>  <PUBCHEM_ATOM_DEF_STEREO_COUNT>
2

>  <PUBCHEM_ATOM_UDEF_STEREO_COUNT>
0

>  <PUBCHEM_BOND_DEF_STEREO_COUNT>
1

>  <PUBCHEM_BOND_UDEF_STEREO_COUNT>
0

>  <PUBCHEM_ISOTOPIC_ATOM_COUNT>
0

>  <PUBCHEM_COMPONENT_COUNT>
1

>  <PUBCHEM_CACTVS_TAUTO_COUNT>
8

>  <PUBCHEM_CONFORMER_ID>
0069876800000001

>  <PUBCHEM_MMFF94_ENERGY>
69.437

>  <PUBCHEM_FEATURE_SELFOVERLAP>
71.36

>  <PUBCHEM_SHAPE_FINGERPRINT>
10042902 136 18188203217891563962
10928967 22 18259983790522955899
11720765 8 13265160812161369112
11796584 16 18411985719463941197
12633257 1 16844723282641996211
13583140 156 16917058962832395505
14178342 30 18270678666937003099
14251751 18 18412820291739304410
14848178 5 18188192269545094618
15163728 17 9006778747636652512
15537594 2 18113914753172562057
1813 80 18042401508001447557
20403669 9 18341331184268652967
20600515 1 18201151032334305152
20626108 58 18259980474997431188
21033648 29 17060337396657782586
23503958 8 18412259532535416265
235170 7 13767934515468597401
23559900 14 18202288039057995813
23598288 3 17532095995045647493
238 59 14634856570148892994
3052486 1 18409448068476689814
508706 21 18272933787166902263
5104073 3 18272934955471879689
602551 16 18342171129558029074
633830 44 15936415481232384716
6371380 46 17339008434160746376
66674814 147 17385715855961062850
6823239 73 17917724508504128270
7970288 3 18187921837251607963

>  <PUBCHEM_SHAPE_MULTIPOLES>
488.52
11.49
3.11
2.16
2.69
0.58
-0.27
9.37
2.78
4.06
0.21
-3.03
0.1
-0.97

>  <PUBCHEM_SHAPE_SELFOVERLAP>
1026.585

>  <PUBCHEM_SHAPE_VOLUME>
277.5

>  <PUBCHEM_COORDINATE_TYPE>
2
5
10

$$$$
5481173
 OpenBabel10202403123D

 59 62  0  0  1  0  0  0  0  0999 V2000
    1.0795    1.7596    0.9147 S   0  0  0  0  0  0  0  0  0  0  0  0
   -5.8244    3.7875   -0.3641 S   0  0  0  0  0  0  0  0  0  0  0  0
    0.2019   -1.0824   -2.6603 O   0  0  0  0  0  0  0  0  0  0  0  0
    2.4749   -2.8099   -0.7152 O   0  5  0  0  0  0  0  0  0  0  0  0
    3.8752   -1.7186   -2.1580 O   0  0  0  0  0  0  0  0  0  0  0  0
   -2.7745    0.1004   -2.4087 O   0  0  0  0  0  0  0  0  0  0  0  0
   -2.8350   -1.5546    0.2130 O   0  0  0  0  0  0  0  0  0  0  0  0
   -2.0964   -4.8365    1.4282 O   0  0  0  0  0  0  0  0  0  0  0  0
   -1.0957   -3.4930   -0.0923 O   0  0  0  0  0  0  0  0  0  0  0  0
    1.5205    0.1589   -1.1535 N   0  0  0  0  0  0  0  0  0  0  0  0
   -1.3838    1.0695   -0.7848 N   0  0  0  0  0  0  0  0  0  0  0  0
    5.6377    0.3798    0.9514 N   0  3  0  0  0  0  0  0  0  0  0  0
   -3.8033   -0.5793    0.4889 N   0  0  0  0  0  0  0  0  0  0  0  0
   -5.6123    1.5079    0.8362 N   0  0  0  0  0  0  0  0  0  0  0  0
   -7.3899    2.8764    1.5830 N   0  0  0  0  0  0  0  0  0  0  0  0
    1.1586    1.5354   -0.8767 C   0  0  1  0  0  0  0  0  0  0  0  0
   -0.1754    1.2254   -1.5931 C   0  0  1  0  0  0  0  0  0  0  0  0
    0.4929   -0.1266   -1.9802 C   0  0  0  0  0  0  0  0  0  0  0  0
    2.6051   -0.4678   -0.6310 C   0  0  0  0  0  0  0  0  0  0  0  0
    3.2771    0.0579    0.4190 C   0  0  0  0  0  0  0  0  0  0  0  0
    2.8343    1.3179    1.1587 C   0  0  0  0  0  0  0  0  0  0  0  0
    4.5059   -0.5546    1.0497 C   0  0  0  0  0  0  0  0  0  0  0  0
    3.0291   -1.8041   -1.2302 C   0  0  0  0  0  0  0  0  0  0  0  0
   -2.5528    0.5223   -1.2851 C   0  0  0  0  0  0  0  0  0  0  0  0
   -3.6613    0.4682   -0.2660 C   0  0  0  0  0  0  0  0  0  0  0  0
    6.4320    0.3209   -0.1263 C   0  0  0  0  0  0  0  0  0  0  0  0
    5.8376    1.2590    1.9426 C   0  0  0  0  0  0  0  0  0  0  0  0
   -4.6038    1.5802   -0.1050 C   0  0  0  0  0  0  0  0  0  0  0  0
    7.5070    1.1901   -0.2459 C   0  0  0  0  0  0  0  0  0  0  0  0
    6.8976    2.1520    1.8769 C   0  0  0  0  0  0  0  0  0  0  0  0
    7.7386    2.1135    0.7690 C   0  0  0  0  0  0  0  0  0  0  0  0
   -3.0619   -2.6576    1.0766 C   0  0  0  0  0  0  0  0  0  0  0  0
   -4.5581    2.7388   -0.8515 C   0  0  0  0  0  0  0  0  0  0  0  0
   -2.9187   -2.1690    2.5150 C   0  0  0  0  0  0  0  0  0  0  0  0
   -4.4557   -3.2063    0.7862 C   0  0  0  0  0  0  0  0  0  0  0  0
   -1.9848   -3.6773    0.7304 C   0  0  0  0  0  0  0  0  0  0  0  0
   -6.3179    2.6160    0.7887 C   0  0  0  0  0  0  0  0  0  0  0  0
    1.7903    2.2578   -1.4071 H   0  0  0  0  0  0  0  0  0  0  0  0
   -0.3578    1.8732   -2.4587 H   0  0  0  0  0  0  0  0  0  0  0  0
    3.4434    2.1719    0.8464 H   0  0  0  0  0  0  0  0  0  0  0  0
    2.9425    1.1822    2.2388 H   0  0  0  0  0  0  0  0  0  0  0  0
   -1.3814    1.3732    0.1863 H   0  0  0  0  0  0  0  0  0  0  0  0
    4.8158   -1.4974    0.5869 H   0  0  0  0  0  0  0  0  0  0  0  0
    4.3306   -0.7803    2.1088 H   0  0  0  0  0  0  0  0  0  0  0  0
    6.2002   -0.4184   -0.8831 H   0  0  0  0  0  0  0  0  0  0  0  0
    5.1693    1.2299    2.7941 H   0  0  0  0  0  0  0  0  0  0  0  0
    8.1552    1.1501   -1.1147 H   0  0  0  0  0  0  0  0  0  0  0  0
    7.0711    2.8631    2.6774 H   0  0  0  0  0  0  0  0  0  0  0  0
    8.5752    2.8023    0.6971 H   0  0  0  0  0  0  0  0  0  0  0  0
   -3.8713    3.0235   -1.6361 H   0  0  0  0  0  0  0  0  0  0  0  0
   -3.7049   -1.4623    2.8024 H   0  0  0  0  0  0  0  0  0  0  0  0
   -1.9599   -1.6562    2.6576 H   0  0  0  0  0  0  0  0  0  0  0  0
   -2.9573   -3.0041    3.2231 H   0  0  0  0  0  0  0  0  0  0  0  0
   -5.2518   -2.5010    1.0485 H   0  0  0  0  0  0  0  0  0  0  0  0
   -4.5694   -3.4338   -0.2804 H   0  0  0  0  0  0  0  0  0  0  0  0
   -4.6452   -4.1295    1.3449 H   0  0  0  0  0  0  0  0  0  0  0  0
   -7.9074    3.7465    1.5141 H   0  0  0  0  0  0  0  0  0  0  0  0
   -7.7144    2.2116    2.2775 H   0  0  0  0  0  0  0  0  0  0  0  0
   -1.3930   -5.4768    1.1886 H   0  0  0  0  0  0  0  0  0  0  0  0
  1 16  1  0  0  0  0
  1 21  1  0  0  0  0
  2 33  1  0  0  0  0
  2 37  1  0  0  0  0
  3 18  2  0  0  0  0
  4 23  1  0  0  0  0
  5 23  2  0  0  0  0
  6 24  2  0  0  0  0
  7 13  1  0  0  0  0
  7 32  1  0  0  0  0
  8 36  1  0  0  0  0
  8 59  1  0  0  0  0
  9 36  2  0  0  0  0
 10 16  1  0  0  0  0
 10 18  1  0  0  0  0
 10 19  1  0  0  0  0
 11 17  1  0  0  0  0
 11 24  1  0  0  0  0
 11 42  1  0  0  0  0
 12 22  1  0  0  0  0
 12 26  2  0  0  0  0
 12 27  1  0  0  0  0
 13 25  2  0  0  0  0
 14 28  1  0  0  0  0
 14 37  2  0  0  0  0
 15 37  1  0  0  0  0
 15 57  1  0  0  0  0
 15 58  1  0  0  0  0
 16 17  1  0  0  0  0
 16 38  1  6  0  0  0
 17 18  1  0  0  0  0
 17 39  1  6  0  0  0
 19 20  2  0  0  0  0
 19 23  1  0  0  0  0
 20 21  1  0  0  0  0
 20 22  1  0  0  0  0
 21 40  1  0  0  0  0
 21 41  1  0  0  0  0
 22 43  1  0  0  0  0
 22 44  1  0  0  0  0
 24 25  1  0  0  0  0
 25 28  1  0  0  0  0
 26 29  1  0  0  0  0
 26 45  1  0  0  0  0
 27 30  2  0  0  0  0
 27 46  1  0  0  0  0
 28 33  2  0  0  0  0
 29 31  2  0  0  0  0
 29 47  1  0  0  0  0
 30 31  1  0  0  0  0
 30 48  1  0  0  0  0
 31 49  1  0  0  0  0
 32 34  1  0  0  0  0
 32 35  1  0  0  0  0
 32 36  1  0  0  0  0
 33 50  1  0  0  0  0
 34 51  1  0  0  0  0
 34 52  1  0  0  0  0
 34 53  1  0  0  0  0
 35 54  1  0  0  0  0
 35 55  1  0  0  0  0
 35 56  1  0  0  0  0
M  CHG  2   4  -1  12   1
M  END
>  <PUBCHEM_COMPOUND_CID>
5481173

>  <PUBCHEM_CONFORMER_RMSD>
1.2

>  <PUBCHEM_CONFORMER_DIVERSEORDER>
1
32
25
45
39
20
13
47
8
38
31
22
21
23
24
17
15
44
27
48
28
41
5
30
16
34
40
12
36
6
46
42
26
43
4
29
9
10
37
33
19
35
3
11
7
18
2
14

>  <PUBCHEM_MMFF94_PARTIAL_CHARGES>
45
1 -0.45
10 -0.39
11 -0.65
12 -0.21
13 -0.51
14 -0.57
15 -0.88
16 0.44
17 0.28
18 0.58
19 -0.14
2 -0.08
20 -0.28
21 0.37
22 0.63
23 1.05
24 0.63
25 0.54
26 0.21
27 0.21
28 0.14
29 -0.15
3 -0.57
30 -0.15
31 -0.15
32 0.34
33 -0.11
36 0.66
37 0.46
4 -0.9
42 0.37
45 0.15
46 0.15
47 0.15
48 0.15
49 0.15
5 -0.9
50 0.15
57 0.4
58 0.4
59 0.5
6 -0.57
7 -0.22
8 -0.65
9 -0.57

>  <PUBCHEM_EFFECTIVE_ROTOR_COUNT>
10.6

>  <PUBCHEM_PHARMACOPHORE_FEATURES>
17
1 11 donor
1 13 acceptor
1 15 donor
1 3 acceptor
1 4 acceptor
1 5 acceptor
1 6 acceptor
1 8 acceptor
1 9 acceptor
3 14 15 37 cation
3 32 34 35 hydrophobe
3 4 5 23 anion
3 8 9 36 anion
4 10 16 17 18 rings
5 2 14 28 33 37 rings
6 1 10 16 19 20 21 rings
6 12 26 27 29 30 31 rings

>  <PUBCHEM_HEAVY_ATOM_COUNT>
37

>  <PUBCHEM_ATOM_DEF_STEREO_COUNT>
2

>  <PUBCHEM_ATOM_UDEF_STEREO_COUNT>
0

>  <PUBCHEM_BOND_DEF_STEREO_COUNT>
1

>  <PUBCHEM_BOND_UDEF_STEREO_COUNT>
0

>  <PUBCHEM_ISOTOPIC_ATOM_COUNT>
0

>  <PUBCHEM_COMPONENT_COUNT>
1

>  <PUBCHEM_CACTVS_TAUTO_COUNT>
4

>  <PUBCHEM_CONFORMER_ID>
0053A2D500000001

>  <PUBCHEM_MMFF94_ENERGY>
88.7867

>  <PUBCHEM_FEATURE_SELFOVERLAP>
86.652

>  <PUBCHEM_SHAPE_FINGERPRINT>
10906281 52 18343297068230652548
11093857 5 18262536882429760826
11112241 14 18271241621755279391
11578080 2 18341612603152397666
13726171 33 18043837435680236252
14020679 6 18411978044769132385
14395042 24 17749965478979516243
14856354 85 18187361069067063756
15361156 5 18272929427569790628
15444296 121 18335421313406133580
16110190 28 17967253104587958348
21033648 29 18337401465185978891
22122407 14 17203608189821201752
3383291 50 18260834843262858787
3882209 13 17762328519922417543
4073 2 18412825784986235402
4403749 210 18199740518145389888
4938544 92 18410008879193168632
5080951 261 17749937972985032623
508706 21 18336836372123582799
5265222 85 17972068939964306599
5364581 5 18264768946842295272
6009941 240 18342175570491312624
6086070 43 16343691158645141912
6691757 9 18187361043745431513

>  <PUBCHEM_SHAPE_MULTIPOLES>
698.17
18.71
4.71
2.11
15.77
3.96
0.4
-17.55
-8.65
-8.5
-1.78
0.38
0.42
2.89

>  <PUBCHEM_SHAPE_SELFOVERLAP>
1475.5

>  <PUBCHEM_SHAPE_VOLUME>
395.4

>  <PUBCHEM_COORDINATE_TYPE>
2
5
10

$$$$
33255
 OpenBabel10202403123D

 43 46  0  0  1  0  0  0  0  0999 V2000
    0.2983   -0.8199    2.4620 S   0  0  0  0  0  0  0  0  0  0  0  0
   -3.6440    1.0226    0.4262 S   0  0  0  0  0  0  0  0  0  0  0  0
   -6.2722    2.5205    0.0825 S   0  0  0  0  0  0  0  0  0  0  0  0
    1.7680   -1.3572   -1.9157 O   0  0  0  0  0  0  0  0  0  0  0  0
   -1.8983   -2.1604   -2.2259 O   0  0  0  0  0  0  0  0  0  0  0  0
   -1.3498    0.0582   -2.3106 O   0  0  0  0  0  0  0  0  0  0  0  0
    4.5964   -0.7927   -0.6621 O   0  0  0  0  0  0  0  0  0  0  0  0
    0.2743   -1.5216   -0.0985 N   0  0  0  0  0  0  0  0  0  0  0  0
    3.0052   -0.6840    1.0243 N   0  0  0  0  0  0  0  0  0  0  0  0
    6.0043    1.3817    0.3412 N   0  0  0  0  0  0  0  0  0  0  0  0
    7.1994    0.8867    0.6480 N   0  0  0  0  0  0  0  0  0  0  0  0
   -6.1036   -0.0334    0.2079 N   0  0  0  0  0  0  0  0  0  0  0  0
    7.3584    2.4097   -0.9723 N   0  0  0  0  0  0  0  0  0  0  0  0
    8.0340    1.5229   -0.1648 N   0  0  0  0  0  0  0  0  0  0  0  0
   -7.4503    0.2454    0.0522 N   0  0  0  0  0  0  0  0  0  0  0  0
    0.7810   -1.9952    1.1767 C   0  0  1  0  0  0  0  0  0  0  0  0
    2.1916   -1.8131    0.5747 C   0  0  1  0  0  0  0  0  0  0  0  0
    1.4483   -1.5490   -0.7659 C   0  0  0  0  0  0  0  0  0  0  0  0
   -1.0269   -1.2050   -0.3230 C   0  0  0  0  0  0  0  0  0  0  0  0
   -1.8978   -1.0266    0.6987 C   0  0  0  0  0  0  0  0  0  0  0  0
   -1.4866   -1.0619    2.1690 C   0  0  0  0  0  0  0  0  0  0  0  0
   -3.3733   -0.7543    0.5297 C   0  0  0  0  0  0  0  0  0  0  0  0
   -1.4319   -1.0009   -1.7218 C   0  0  0  0  0  0  0  0  0  0  0  0
    4.1557   -0.2652    0.3557 C   0  0  0  0  0  0  0  0  0  0  0  0
    4.8055    0.9207    1.0347 C   0  0  0  0  0  0  0  0  0  0  0  0
   -5.4023    1.0651    0.2366 C   0  0  0  0  0  0  0  0  0  0  0  0
    6.0935    2.3017   -0.6365 C   0  0  0  0  0  0  0  0  0  0  0  0
   -7.6751    1.5395   -0.0261 C   0  0  0  0  0  0  0  0  0  0  0  0
   -9.0015    2.1656   -0.1967 C   0  0  0  0  0  0  0  0  0  0  0  0
    0.5161   -3.0396    1.3798 H   0  0  0  0  0  0  0  0  0  0  0  0
    2.7746   -2.7416    0.5618 H   0  0  0  0  0  0  0  0  0  0  0  0
   -1.7900   -2.0194    2.6065 H   0  0  0  0  0  0  0  0  0  0  0  0
   -1.9942   -0.2676    2.7256 H   0  0  0  0  0  0  0  0  0  0  0  0
    2.7343   -0.1742    1.8620 H   0  0  0  0  0  0  0  0  0  0  0  0
   -3.9347   -1.1822    1.3684 H   0  0  0  0  0  0  0  0  0  0  0  0
   -3.7520   -1.2365   -0.3781 H   0  0  0  0  0  0  0  0  0  0  0  0
    4.1023    1.7599    1.0659 H   0  0  0  0  0  0  0  0  0  0  0  0
    5.0924    0.6572    2.0583 H   0  0  0  0  0  0  0  0  0  0  0  0
   -2.1819   -2.0690   -3.1605 H   0  0  0  0  0  0  0  0  0  0  0  0
    5.2594    2.8434   -1.0578 H   0  0  0  0  0  0  0  0  0  0  0  0
   -9.7838    1.4011   -0.2447 H   0  0  0  0  0  0  0  0  0  0  0  0
   -9.0456    2.7463   -1.1237 H   0  0  0  0  0  0  0  0  0  0  0  0
   -9.2343    2.8284    0.6429 H   0  0  0  0  0  0  0  0  0  0  0  0
  1 16  1  0  0  0  0
  1 21  1  0  0  0  0
  2 22  1  0  0  0  0
  2 26  1  0  0  0  0
  3 26  1  0  0  0  0
  3 28  1  0  0  0  0
  4 18  2  0  0  0  0
  5 23  1  0  0  0  0
  5 39  1  0  0  0  0
  6 23  2  0  0  0  0
  7 24  2  0  0  0  0
  8 16  1  0  0  0  0
  8 18  1  0  0  0  0
  8 19  1  0  0  0  0
  9 17  1  0  0  0  0
  9 24  1  0  0  0  0
  9 34  1  0  0  0  0
 10 11  1  0  0  0  0
 10 25  1  0  0  0  0
 10 27  1  0  0  0  0
 11 14  2  0  0  0  0
 12 15  1  0  0  0  0
 12 26  2  0  0  0  0
 13 14  1  0  0  0  0
 13 27  2  0  0  0  0
 15 28  2  0  0  0  0
 16 17  1  0  0  0  0
 16 30  1  1  0  0  0
 17 18  1  0  0  0  0
 17 31  1  6  0  0  0
 19 20  2  0  0  0  0
 19 23  1  0  0  0  0
 20 21  1  0  0  0  0
 20 22  1  0  0  0  0
 21 32  1  0  0  0  0
 21 33  1  0  0  0  0
 22 35  1  0  0  0  0
 22 36  1  0  0  0  0
 24 25  1  0  0  0  0
 25 37  1  0  0  0  0
 25 38  1  0  0  0  0
 27 40  1  0  0  0  0
 28 29  1  0  0  0  0
 29 41  1  0  0  0  0
 29 42  1  0  0  0  0
 29 43  1  0  0  0  0
M  END
>  <PUBCHEM_COMPOUND_CID>
33255

>  <PUBCHEM_CONFORMER_RMSD>
1

>  <PUBCHEM_CONFORMER_DIVERSEORDER>
1
112
74
88
66
83
109
58
79
89
105
48
115
96
84
19
98
17
87
91
103
97
45
77
39
72
56
111
99
43
26
46
90
100
38
85
40
27
68
78
114
101
9
62
106
104
15
64
71
25
67
95
81
44
61
2
59
5
8
21
36
82
55
20
69
75
70
110
28
24
30
41
80
12
34
65
29
31
108
76
32
86
113
50
10
47
35
13
52
23
16
73
49
92
94
33
54
14
18
6
60
11
22
63
4
102
3
42
107
51
7
57
53
93
37

>  <PUBCHEM_MMFF94_PARTIAL_CHARGES>
31
1 -0.45
10 0.31
11 -0.42
12 -0.34
13 -0.34
15 -0.34
16 0.44
17 0.28
18 0.58
19 0.12
2 -0.29
20 -0.28
21 0.37
22 0.37
23 0.71
24 0.57
25 0.32
26 0.43
27 0.04
28 0.2
29 0.18
3 -0.08
34 0.37
39 0.5
4 -0.57
40 0.15
5 -0.65
6 -0.57
7 -0.57
8 -0.39
9 -0.65

>  <PUBCHEM_EFFECTIVE_ROTOR_COUNT>
8.6

>  <PUBCHEM_PHARMACOPHORE_FEATURES>
13
1 12 acceptor
1 15 acceptor
1 4 acceptor
1 5 acceptor
1 6 acceptor
1 7 acceptor
1 9 donor
3 10 13 27 cation
3 5 6 23 anion
4 8 16 17 18 rings
5 10 11 13 14 27 rings
5 3 12 15 26 28 rings
6 1 8 16 19 20 21 rings

>  <PUBCHEM_HEAVY_ATOM_COUNT>
29

>  <PUBCHEM_ATOM_DEF_STEREO_COUNT>
2

>  <PUBCHEM_ATOM_UDEF_STEREO_COUNT>
0

>  <PUBCHEM_BOND_DEF_STEREO_COUNT>
0

>  <PUBCHEM_BOND_UDEF_STEREO_COUNT>
0

>  <PUBCHEM_ISOTOPIC_ATOM_COUNT>
0

>  <PUBCHEM_COMPONENT_COUNT>
1

>  <PUBCHEM_CACTVS_TAUTO_COUNT>
2

>  <PUBCHEM_CONFORMER_ID>
000081E700000001

>  <PUBCHEM_MMFF94_ENERGY>
57.615

>  <PUBCHEM_FEATURE_SELFOVERLAP>
67.782

>  <PUBCHEM_SHAPE_FINGERPRINT>
10 15 17530683208017542976
10753850 27 9583520910565980600
11991303 11 16988832904856754639
12035758 1 15863790595503606167
12633257 1 16515970362667452586
12895837 130 18337676424465024213
13257819 37 16917066664051544935
13911987 19 17275106115983077027
14114211 68 17275104990490746919
14216079 64 10087640399105807265
14565420 104 17967530151590719586
14767858 380 16128658522544138715
14931854 50 16128661825120599946
15131766 46 18338792446480121592
15183329 4 14620795994083558495
15188451 53 10953453025231275398
15475509 35 7997970150699625172
15510800 12 8718549471108014144
15840311 113 18260269607478766263
15961568 22 18341050731694943657
16994733 274 18410849988477061681
17492 54 17203610371949261971
17980427 23 17459190831866049742
18335252 114 17917993863194172096
18393751 57 17167861975922396746
19841028 212 9799153837146250436
19958102 18 16056616360988376308
20105231 36 13254788072070382341
2026 5 10735889351971332788
20505436 4 18412819187938574830
20511986 3 17386843921158298553
20691028 202 18117280466162333748
20771845 171 17702664337563606071
21307412 95 14045741568702484389
21344244 181 12967119519545973501
21585482 111 18115304467061885221
21639891 77 12757136988102849559
22122407 14 18262247736820515720
22224240 67 17240482511608570019
23569943 247 11815355779150426613
23576562 1 16916205811167294377
24771293 8 17749108898673997381
2838139 119 18340763840737566304
3103668 31 16628539535514013655
34797466 226 18200877258718401439
439807 62 10663819680426826449
5104073 3 15647878324077052361
5718773 13 10303820873658927312
57527585 21 17628617688658442309
58260988 647 10879993566415400279
59682541 35 17313110739860953033
59682541 52 17417823807821492726
6438161 24 9871745784669680157
9689198 14 18410578387498223781

>  <PUBCHEM_SHAPE_MULTIPOLES>
545.03
22.88
2.64
1.79
5.96
1.05
0.35
26.73
-0.43
-1.18
0.19
-0.24
-1.03
-0.61

>  <PUBCHEM_SHAPE_SELFOVERLAP>
1125.864

>  <PUBCHEM_SHAPE_VOLUME>
314.2

>  <PUBCHEM_COORDINATE_TYPE>
2
5
10

$$$$
53234134
 OpenBabel10202403123D

 75 78  0  0  1  0  0  0  0  0999 V2000
   -0.4985   -2.2254   -1.7229 S   0  0  0  0  0  0  0  0  0  0  0  0
   -6.9076    1.7370   -2.5627 S   0  0  0  0  0  0  0  0  0  0  0  0
   -1.7570   -2.2923    2.7529 O   0  0  0  0  0  0  0  0  0  0  0  0
    1.6406   -1.7027    2.7936 O   0  5  0  0  0  0  0  0  0  0  0  0
    1.6088   -3.9842    2.9577 O   0  0  0  0  0  0  0  0  0  0  0  0
   -4.4087   -0.8439    1.6607 O   0  0  0  0  0  0  0  0  0  0  0  0
   -2.4862    1.5455    1.2176 O   0  0  0  0  0  0  0  0  0  0  0  0
    3.4505    2.1146    0.6961 O   0  0  0  0  0  0  0  0  0  0  0  0
    0.7376    2.8843    1.9968 O   0  0  0  0  0  0  0  0  0  0  0  0
   -0.4524    1.1469    2.8239 O   0  0  0  0  0  0  0  0  0  0  0  0
   -0.5168   -2.8938    0.8437 N   0  0  0  0  0  0  0  0  0  0  0  0
   -2.9420   -1.2837   -0.1184 N   0  0  0  0  0  0  0  0  0  0  0  0
    3.8714   -2.0666   -0.6187 N   0  3  0  0  0  0  0  0  0  0  0  0
    4.8153   -2.1003   -1.7205 N   0  0  0  0  0  0  0  0  0  0  0  0
    4.8471    1.4101   -1.0662 N   0  0  0  0  0  0  0  0  0  0  0  0
    6.1710   -0.6232   -3.0048 N   0  0  0  0  0  0  0  0  0  0  0  0
   -3.4927    1.8361    0.2861 N   0  0  0  0  0  0  0  0  0  0  0  0
   -6.0403   -0.2765   -1.2921 N   0  0  0  0  0  0  0  0  0  0  0  0
   -5.6080    2.0322   -1.5505 N   0  0  0  0  0  0  0  0  0  0  0  0
    4.7149    3.6597   -0.4693 N   0  0  0  0  0  0  0  0  0  0  0  0
   -7.8877   -0.7541   -2.7170 N   0  0  0  0  0  0  0  0  0  0  0  0
    2.6276    6.6235    0.3831 N   0  0  0  0  0  0  0  0  0  0  0  0
   -1.2243   -3.1990   -0.3846 C   0  0  1  0  0  0  0  0  0  0  0  0
   -2.4738   -2.6034    0.3030 C   0  0  1  0  0  0  0  0  0  0  0  0
   -1.5951   -2.5707    1.5880 C   0  0  0  0  0  0  0  0  0  0  0  0
    0.8305   -2.9679    0.9902 C   0  0  0  0  0  0  0  0  0  0  0  0
    1.6463   -3.0564   -0.0856 C   0  0  0  0  0  0  0  0  0  0  0  0
    1.1516   -2.9831   -1.5279 C   0  0  0  0  0  0  0  0  0  0  0  0
    3.1443   -3.2234   -0.0034 C   0  0  0  0  0  0  0  0  0  0  0  0
    1.4211   -2.8754    2.3919 C   0  0  0  0  0  0  0  0  0  0  0  0
   -3.8610   -0.5485    0.6106 C   0  0  0  0  0  0  0  0  0  0  0  0
    3.7932   -0.7361   -0.2658 C   0  0  0  0  0  0  0  0  0  0  0  0
    5.2807   -0.8315   -2.0109 C   0  0  0  0  0  0  0  0  0  0  0  0
    4.6577    0.0480   -1.1144 C   0  0  0  0  0  0  0  0  0  0  0  0
   -4.1853    0.7805   -0.0191 C   0  0  0  0  0  0  0  0  0  0  0  0
    5.1873   -3.3249   -2.3946 C   0  0  0  0  0  0  0  0  0  0  0  0
   -5.3123    0.8610   -0.9867 C   0  0  0  0  0  0  0  0  0  0  0  0
    4.2590    2.3664   -0.1942 C   0  0  0  0  0  0  0  0  0  0  0  0
   -1.4060    2.4380    0.9924 C   0  0  0  0  0  0  0  0  0  0  0  0
   -6.9642    0.0693   -2.1615 C   0  0  0  0  0  0  0  0  0  0  0  0
   -0.8908    2.2084   -0.4253 C   0  0  0  0  0  0  0  0  0  0  0  0
   -1.9173    3.8605    1.2009 C   0  0  0  0  0  0  0  0  0  0  0  0
    4.2780    4.8231    0.2676 C   0  0  0  0  0  0  0  0  0  0  0  0
   -0.3512    2.0740    2.0290 C   0  0  0  0  0  0  0  0  0  0  0  0
    3.0451    5.4474   -0.3690 C   0  0  0  0  0  0  0  0  0  0  0  0
   -1.2955   -4.2756   -0.5800 H   0  0  0  0  0  0  0  0  0  0  0  0
   -3.3047   -3.3154    0.3736 H   0  0  0  0  0  0  0  0  0  0  0  0
    1.1316   -3.9920   -1.9545 H   0  0  0  0  0  0  0  0  0  0  0  0
    1.8258   -2.3794   -2.1416 H   0  0  0  0  0  0  0  0  0  0  0  0
   -2.5860   -0.8755   -0.9796 H   0  0  0  0  0  0  0  0  0  0  0  0
    3.5189   -3.3046    1.0215 H   0  0  0  0  0  0  0  0  0  0  0  0
    3.4392   -4.1434   -0.5172 H   0  0  0  0  0  0  0  0  0  0  0  0
    3.1558   -0.4061    0.5410 H   0  0  0  0  0  0  0  0  0  0  0  0
    5.7849   -3.9181   -1.6991 H   0  0  0  0  0  0  0  0  0  0  0  0
    4.2686   -3.8549   -2.6570 H   0  0  0  0  0  0  0  0  0  0  0  0
    5.7494   -3.1334   -3.3070 H   0  0  0  0  0  0  0  0  0  0  0  0
    5.5011    1.7750   -1.7539 H   0  0  0  0  0  0  0  0  0  0  0  0
    6.5085    0.3101   -3.2202 H   0  0  0  0  0  0  0  0  0  0  0  0
    6.5690   -1.3580   -3.5780 H   0  0  0  0  0  0  0  0  0  0  0  0
    5.3751    3.7914   -1.2293 H   0  0  0  0  0  0  0  0  0  0  0  0
    0.0238    2.7824   -0.6118 H   0  0  0  0  0  0  0  0  0  0  0  0
   -0.6555    1.1498   -0.5864 H   0  0  0  0  0  0  0  0  0  0  0  0
   -1.6171    2.4958   -1.1932 H   0  0  0  0  0  0  0  0  0  0  0  0
   -1.1005    4.5889    1.1486 H   0  0  0  0  0  0  0  0  0  0  0  0
   -2.3920    3.9630    2.1840 H   0  0  0  0  0  0  0  0  0  0  0  0
   -2.6622    4.1566    0.4542 H   0  0  0  0  0  0  0  0  0  0  0  0
    4.0747    4.5311    1.3044 H   0  0  0  0  0  0  0  0  0  0  0  0
    5.1136    5.5317    0.2719 H   0  0  0  0  0  0  0  0  0  0  0  0
    3.2602    5.7367   -1.4037 H   0  0  0  0  0  0  0  0  0  0  0  0
    2.2230    4.7231   -0.3999 H   0  0  0  0  0  0  0  0  0  0  0  0
   -8.5733   -0.4163   -3.3844 H   0  0  0  0  0  0  0  0  0  0  0  0
   -7.9306   -1.7416   -2.4878 H   0  0  0  0  0  0  0  0  0  0  0  0
    1.4039    2.6297    2.6702 H   0  0  0  0  0  0  0  0  0  0  0  0
    1.7733    7.0003   -0.0254 H   0  0  0  0  0  0  0  0  0  0  0  0
    2.3929    6.3553    1.3380 H   0  0  0  0  0  0  0  0  0  0  0  0
  1 23  1  0  0  0  0
  1 28  1  0  0  0  0
  2 19  1  0  0  0  0
  2 40  1  0  0  0  0
  3 25  2  0  0  0  0
  4 30  1  0  0  0  0
  5 30  2  0  0  0  0
  6 31  2  0  0  0  0
  7 17  1  0  0  0  0
  7 39  1  0  0  0  0
  8 38  2  0  0  0  0
  9 44  1  0  0  0  0
  9 73  1  0  0  0  0
 10 44  2  0  0  0  0
 11 23  1  0  0  0  0
 11 25  1  0  0  0  0
 11 26  1  0  0  0  0
 12 24  1  0  0  0  0
 12 31  1  0  0  0  0
 12 50  1  0  0  0  0
 13 14  1  0  0  0  0
 13 29  1  0  0  0  0
 13 32  2  0  0  0  0
 14 33  1  0  0  0  0
 14 36  1  0  0  0  0
 15 34  1  0  0  0  0
 15 38  1  0  0  0  0
 15 57  1  0  0  0  0
 16 33  1  0  0  0  0
 16 58  1  0  0  0  0
 16 59  1  0  0  0  0
 17 35  2  0  0  0  0
 18 37  1  0  0  0  0
 18 40  2  0  0  0  0
 19 37  2  0  0  0  0
 20 38  1  0  0  0  0
 20 43  1  0  0  0  0
 20 60  1  0  0  0  0
 21 40  1  0  0  0  0
 21 71  1  0  0  0  0
 21 72  1  0  0  0  0
 22 45  1  0  0  0  0
 22 74  1  0  0  0  0
 22 75  1  0  0  0  0
 23 24  1  0  0  0  0
 23 46  1  6  0  0  0
 24 25  1  0  0  0  0
 24 47  1  1  0  0  0
 26 27  2  0  0  0  0
 26 30  1  0  0  0  0
 27 28  1  0  0  0  0
 27 29  1  0  0  0  0
 28 48  1  0  0  0  0
 28 49  1  0  0  0  0
 29 51  1  0  0  0  0
 29 52  1  0  0  0  0
 31 35  1  0  0  0  0
 32 34  1  0  0  0  0
 32 53  1  0  0  0  0
 33 34  2  0  0  0  0
 35 37  1  0  0  0  0
 36 54  1  0  0  0  0
 36 55  1  0  0  0  0
 36 56  1  0  0  0  0
 39 41  1  0  0  0  0
 39 42  1  0  0  0  0
 39 44  1  0  0  0  0
 41 61  1  0  0  0  0
 41 62  1  0  0  0  0
 41 63  1  0  0  0  0
 42 64  1  0  0  0  0
 42 65  1  0  0  0  0
 42 66  1  0  0  0  0
 43 45  1  0  0  0  0
 43 67  1  0  0  0  0
 43 68  1  0  0  0  0
 45 69  1  0  0  0  0
 45 70  1  0  0  0  0
M  CHG  2   4  -1  13   1
M  END
>  <PUBCHEM_COMPOUND_CID>
53234134

>  <PUBCHEM_CONFORMER_RMSD>
1.4

>  <PUBCHEM_CONFORMER_DIVERSEORDER>
1
55
36
57
41
34
65
54
69
37
4
51
53
46
21
60
22
68
44
19
9
73
27
28
20
40
70
64
48
6
31
72
13
45
23
15
74
61
67
52
11
62
25
10
42
50
18
49
7
58
8
38
17
59
47
14
24
2
39
32
30
71
12
26
56
43
3
5
33
63
29
66
16
35

>  <PUBCHEM_MMFF94_PARTIAL_CHARGES>
54
1 -0.45
10 -0.57
11 -0.39
12 -0.65
13 -0.26
14 0.31
15 -0.49
16 -0.88
17 -0.51
18 -0.57
19 -0.51
2 0.18
20 -0.73
21 -0.88
22 -0.99
23 0.44
24 0.28
25 0.58
26 -0.14
27 -0.28
28 0.37
29 0.65
3 -0.57
30 1.05
31 0.63
32 0.18
33 -0.07
34 0.06
35 0.54
36 0.26
37 0.43
38 0.69
39 0.34
4 -0.9
40 0.46
43 0.3
44 0.66
45 0.27
5 -0.9
50 0.37
53 0.15
57 0.37
58 0.4
59 0.4
6 -0.57
60 0.37
7 -0.22
71 0.4
72 0.4
73 0.5
74 0.36
75 0.36
8 -0.57
9 -0.65

>  <PUBCHEM_EFFECTIVE_ROTOR_COUNT>
15.6

>  <PUBCHEM_PHARMACOPHORE_FEATURES>
25
1 10 acceptor
1 12 donor
1 15 donor
1 16 cation
1 16 donor
1 17 acceptor
1 20 donor
1 21 donor
1 22 cation
1 22 donor
1 3 acceptor
1 4 acceptor
1 5 acceptor
1 6 acceptor
1 8 acceptor
1 9 acceptor
3 18 19 37 cation
3 18 21 40 cation
3 39 41 42 hydrophobe
3 4 5 30 anion
3 9 10 44 anion
4 11 23 24 25 rings
5 13 14 32 33 34 rings
5 2 18 19 37 40 rings
6 1 11 23 26 27 28 rings

>  <PUBCHEM_HEAVY_ATOM_COUNT>
45

>  <PUBCHEM_ATOM_DEF_STEREO_COUNT>
2

>  <PUBCHEM_ATOM_UDEF_STEREO_COUNT>
0

>  <PUBCHEM_BOND_DEF_STEREO_COUNT>
1

>  <PUBCHEM_BOND_UDEF_STEREO_COUNT>
0

>  <PUBCHEM_ISOTOPIC_ATOM_COUNT>
0

>  <PUBCHEM_COMPONENT_COUNT>
1

>  <PUBCHEM_CACTVS_TAUTO_COUNT>
150

>  <PUBCHEM_CONFORMER_ID>
032C49D600000001

>  <PUBCHEM_MMFF94_ENERGY>
95.3379

>  <PUBCHEM_FEATURE_SELFOVERLAP>
127.541

>  <PUBCHEM_SHAPE_FINGERPRINT>
10675989 125 18410570721103647520
12124843 1 18339929207741825286
13782708 43 15338537381250701423
14747282 140 16182455767060725208
14931854 50 18339646633274728094
15001296 14 18340759412325480871
15082195 135 18268138765598398679
15274700 21 17824854280629503251
15721738 15 18411134774916638652
15968369 26 18055901345869356048
16067689 134 17909558251030841417
16992828 155 16322883227655280140
20764821 26 17983854764285206656
354706 132 17679306527581218980
42767 28 18408609127829235998
50150288 127 16122526619659077936
5265222 85 17903062680189449545

>  <PUBCHEM_SHAPE_MULTIPOLES>
827.05
15.06
7.45
2.97
15.88
9.62
-0.45
4.08
16.42
-10.06
-1.96
0.65
-1.82
1.64

>  <PUBCHEM_SHAPE_SELFOVERLAP>
1716.258

>  <PUBCHEM_SHAPE_VOLUME>
474.6

>  <PUBCHEM_COORDINATE_TYPE>
2
5
10

$$$$
5481173
 OpenBabel10202403123D

 59 62  0  0  1  0  0  0  0  0999 V2000
    1.0795    1.7596    0.9147 S   0  0  0  0  0  0  0  0  0  0  0  0
   -5.8244    3.7875   -0.3641 S   0  0  0  0  0  0  0  0  0  0  0  0
    0.2019   -1.0824   -2.6603 O   0  0  0  0  0  0  0  0  0  0  0  0
    2.4749   -2.8099   -0.7152 O   0  5  0  0  0  0  0  0  0  0  0  0
    3.8752   -1.7186   -2.1580 O   0  0  0  0  0  0  0  0  0  0  0  0
   -2.7745    0.1004   -2.4087 O   0  0  0  0  0  0  0  0  0  0  0  0
   -2.8350   -1.5546    0.2130 O   0  0  0  0  0  0  0  0  0  0  0  0
   -2.0964   -4.8365    1.4282 O   0  0  0  0  0  0  0  0  0  0  0  0
   -1.0957   -3.4930   -0.0923 O   0  0  0  0  0  0  0  0  0  0  0  0
    1.5205    0.1589   -1.1535 N   0  0  0  0  0  0  0  0  0  0  0  0
   -1.3838    1.0695   -0.7848 N   0  0  0  0  0  0  0  0  0  0  0  0
    5.6377    0.3798    0.9514 N   0  3  0  0  0  0  0  0  0  0  0  0
   -3.8033   -0.5793    0.4889 N   0  0  0  0  0  0  0  0  0  0  0  0
   -5.6123    1.5079    0.8362 N   0  0  0  0  0  0  0  0  0  0  0  0
   -7.3899    2.8764    1.5830 N   0  0  0  0  0  0  0  0  0  0  0  0
    1.1586    1.5354   -0.8767 C   0  0  1  0  0  0  0  0  0  0  0  0
   -0.1754    1.2254   -1.5931 C   0  0  1  0  0  0  0  0  0  0  0  0
    0.4929   -0.1266   -1.9802 C   0  0  0  0  0  0  0  0  0  0  0  0
    2.6051   -0.4678   -0.6310 C   0  0  0  0  0  0  0  0  0  0  0  0
    3.2771    0.0579    0.4190 C   0  0  0  0  0  0  0  0  0  0  0  0
    2.8343    1.3179    1.1587 C   0  0  0  0  0  0  0  0  0  0  0  0
    4.5059   -0.5546    1.0497 C   0  0  0  0  0  0  0  0  0  0  0  0
    3.0291   -1.8041   -1.2302 C   0  0  0  0  0  0  0  0  0  0  0  0
   -2.5528    0.5223   -1.2851 C   0  0  0  0  0  0  0  0  0  0  0  0
   -3.6613    0.4682   -0.2660 C   0  0  0  0  0  0  0  0  0  0  0  0
    6.4320    0.3209   -0.1263 C   0  0  0  0  0  0  0  0  0  0  0  0
    5.8376    1.2590    1.9426 C   0  0  0  0  0  0  0  0  0  0  0  0
   -4.6038    1.5802   -0.1050 C   0  0  0  0  0  0  0  0  0  0  0  0
    7.5070    1.1901   -0.2459 C   0  0  0  0  0  0  0  0  0  0  0  0
    6.8976    2.1520    1.8769 C   0  0  0  0  0  0  0  0  0  0  0  0
    7.7386    2.1135    0.7690 C   0  0  0  0  0  0  0  0  0  0  0  0
   -3.0619   -2.6576    1.0766 C   0  0  0  0  0  0  0  0  0  0  0  0
   -4.5581    2.7388   -0.8515 C   0  0  0  0  0  0  0  0  0  0  0  0
   -2.9187   -2.1690    2.5150 C   0  0  0  0  0  0  0  0  0  0  0  0
   -4.4557   -3.2063    0.7862 C   0  0  0  0  0  0  0  0  0  0  0  0
   -1.9848   -3.6773    0.7304 C   0  0  0  0  0  0  0  0  0  0  0  0
   -6.3179    2.6160    0.7887 C   0  0  0  0  0  0  0  0  0  0  0  0
    1.7903    2.2578   -1.4071 H   0  0  0  0  0  0  0  0  0  0  0  0
   -0.3578    1.8732   -2.4587 H   0  0  0  0  0  0  0  0  0  0  0  0
    3.4434    2.1719    0.8464 H   0  0  0  0  0  0  0  0  0  0  0  0
    2.9425    1.1822    2.2388 H   0  0  0  0  0  0  0  0  0  0  0  0
   -1.3814    1.3732    0.1863 H   0  0  0  0  0  0  0  0  0  0  0  0
    4.8158   -1.4974    0.5869 H   0  0  0  0  0  0  0  0  0  0  0  0
    4.3306   -0.7803    2.1088 H   0  0  0  0  0  0  0  0  0  0  0  0
    6.2002   -0.4184   -0.8831 H   0  0  0  0  0  0  0  0  0  0  0  0
    5.1693    1.2299    2.7941 H   0  0  0  0  0  0  0  0  0  0  0  0
    8.1552    1.1501   -1.1147 H   0  0  0  0  0  0  0  0  0  0  0  0
    7.0711    2.8631    2.6774 H   0  0  0  0  0  0  0  0  0  0  0  0
    8.5752    2.8023    0.6971 H   0  0  0  0  0  0  0  0  0  0  0  0
   -3.8713    3.0235   -1.6361 H   0  0  0  0  0  0  0  0  0  0  0  0
   -3.7049   -1.4623    2.8024 H   0  0  0  0  0  0  0  0  0  0  0  0
   -1.9599   -1.6562    2.6576 H   0  0  0  0  0  0  0  0  0  0  0  0
   -2.9573   -3.0041    3.2231 H   0  0  0  0  0  0  0  0  0  0  0  0
   -5.2518   -2.5010    1.0485 H   0  0  0  0  0  0  0  0  0  0  0  0
   -4.5694   -3.4338   -0.2804 H   0  0  0  0  0  0  0  0  0  0  0  0
   -4.6452   -4.1295    1.3449 H   0  0  0  0  0  0  0  0  0  0  0  0
   -7.9074    3.7465    1.5141 H   0  0  0  0  0  0  0  0  0  0  0  0
   -7.7144    2.2116    2.2775 H   0  0  0  0  0  0  0  0  0  0  0  0
   -1.3930   -5.4768    1.1886 H   0  0  0  0  0  0  0  0  0  0  0  0
  1 16  1  0  0  0  0
  1 21  1  0  0  0  0
  2 33  1  0  0  0  0
  2 37  1  0  0  0  0
  3 18  2  0  0  0  0
  4 23  1  0  0  0  0
  5 23  2  0  0  0  0
  6 24  2  0  0  0  0
  7 13  1  0  0  0  0
  7 32  1  0  0  0  0
  8 36  1  0  0  0  0
  8 59  1  0  0  0  0
  9 36  2  0  0  0  0
 10 16  1  0  0  0  0
 10 18  1  0  0  0  0
 10 19  1  0  0  0  0
 11 17  1  0  0  0  0
 11 24  1  0  0  0  0
 11 42  1  0  0  0  0
 12 22  1  0  0  0  0
 12 26  2  0  0  0  0
 12 27  1  0  0  0  0
 13 25  2  0  0  0  0
 14 28  1  0  0  0  0
 14 37  2  0  0  0  0
 15 37  1  0  0  0  0
 15 57  1  0  0  0  0
 15 58  1  0  0  0  0
 16 17  1  0  0  0  0
 16 38  1  6  0  0  0
 17 18  1  0  0  0  0
 17 39  1  6  0  0  0
 19 20  2  0  0  0  0
 19 23  1  0  0  0  0
 20 21  1  0  0  0  0
 20 22  1  0  0  0  0
 21 40  1  0  0  0  0
 21 41  1  0  0  0  0
 22 43  1  0  0  0  0
 22 44  1  0  0  0  0
 24 25  1  0  0  0  0
 25 28  1  0  0  0  0
 26 29  1  0  0  0  0
 26 45  1  0  0  0  0
 27 30  2  0  0  0  0
 27 46  1  0  0  0  0
 28 33  2  0  0  0  0
 29 31  2  0  0  0  0
 29 47  1  0  0  0  0
 30 31  1  0  0  0  0
 30 48  1  0  0  0  0
 31 49  1  0  0  0  0
 32 34  1  0  0  0  0
 32 35  1  0  0  0  0
 32 36  1  0  0  0  0
 33 50  1  0  0  0  0
 34 51  1  0  0  0  0
 34 52  1  0  0  0  0
 34 53  1  0  0  0  0
 35 54  1  0  0  0  0
 35 55  1  0  0  0  0
 35 56  1  0  0  0  0
M  CHG  2   4  -1  12   1
M  END
>  <PUBCHEM_COMPOUND_CID>
5481173

>  <PUBCHEM_CONFORMER_RMSD>
1.2

>  <PUBCHEM_CONFORMER_DIVERSEORDER>
1
32
25
45
39
20
13
47
8
38
31
22
21
23
24
17
15
44
27
48
28
41
5
30
16
34
40
12
36
6
46
42
26
43
4
29
9
10
37
33
19
35
3
11
7
18
2
14

>  <PUBCHEM_MMFF94_PARTIAL_CHARGES>
45
1 -0.45
10 -0.39
11 -0.65
12 -0.21
13 -0.51
14 -0.57
15 -0.88
16 0.44
17 0.28
18 0.58
19 -0.14
2 -0.08
20 -0.28
21 0.37
22 0.63
23 1.05
24 0.63
25 0.54
26 0.21
27 0.21
28 0.14
29 -0.15
3 -0.57
30 -0.15
31 -0.15
32 0.34
33 -0.11
36 0.66
37 0.46
4 -0.9
42 0.37
45 0.15
46 0.15
47 0.15
48 0.15
49 0.15
5 -0.9
50 0.15
57 0.4
58 0.4
59 0.5
6 -0.57
7 -0.22
8 -0.65
9 -0.57

>  <PUBCHEM_EFFECTIVE_ROTOR_COUNT>
10.6

>  <PUBCHEM_PHARMACOPHORE_FEATURES>
17
1 11 donor
1 13 acceptor
1 15 donor
1 3 acceptor
1 4 acceptor
1 5 acceptor
1 6 acceptor
1 8 acceptor
1 9 acceptor
3 14 15 37 cation
3 32 34 35 hydrophobe
3 4 5 23 anion
3 8 9 36 anion
4 10 16 17 18 rings
5 2 14 28 33 37 rings
6 1 10 16 19 20 21 rings
6 12 26 27 29 30 31 rings

>  <PUBCHEM_HEAVY_ATOM_COUNT>
37

>  <PUBCHEM_ATOM_DEF_STEREO_COUNT>
2

>  <PUBCHEM_ATOM_UDEF_STEREO_COUNT>
0

>  <PUBCHEM_BOND_DEF_STEREO_COUNT>
1

>  <PUBCHEM_BOND_UDEF_STEREO_COUNT>
0

>  <PUBCHEM_ISOTOPIC_ATOM_COUNT>
0

>  <PUBCHEM_COMPONENT_COUNT>
1

>  <PUBCHEM_CACTVS_TAUTO_COUNT>
4

>  <PUBCHEM_CONFORMER_ID>
0053A2D500000001

>  <PUBCHEM_MMFF94_ENERGY>
88.7867

>  <PUBCHEM_FEATURE_SELFOVERLAP>
86.652

>  <PUBCHEM_SHAPE_FINGERPRINT>
10906281 52 18343297068230652548
11093857 5 18262536882429760826
11112241 14 18271241621755279391
11578080 2 18341612603152397666
13726171 33 18043837435680236252
14020679 6 18411978044769132385
14395042 24 17749965478979516243
14856354 85 18187361069067063756
15361156 5 18272929427569790628
15444296 121 18335421313406133580
16110190 28 17967253104587958348
21033648 29 18337401465185978891
22122407 14 17203608189821201752
3383291 50 18260834843262858787
3882209 13 17762328519922417543
4073 2 18412825784986235402
4403749 210 18199740518145389888
4938544 92 18410008879193168632
5080951 261 17749937972985032623
508706 21 18336836372123582799
5265222 85 17972068939964306599
5364581 5 18264768946842295272
6009941 240 18342175570491312624
6086070 43 16343691158645141912
6691757 9 18187361043745431513

>  <PUBCHEM_SHAPE_MULTIPOLES>
698.17
18.71
4.71
2.11
15.77
3.96
0.4
-17.55
-8.65
-8.5
-1.78
0.38
0.42
2.89

>  <PUBCHEM_SHAPE_SELFOVERLAP>
1475.5

>  <PUBCHEM_SHAPE_VOLUME>
395.4

>  <PUBCHEM_COORDINATE_TYPE>
2
5
10

$$$$
5362065
 OpenBabel10202403123D

 45 47  0  0  1  0  0  0  0  0999 V2000
    1.2677   -2.0984   -1.6772 S   0  0  0  0  0  0  0  0  0  0  0  0
   -5.7972   -2.3528    0.1605 S   0  0  0  0  0  0  0  0  0  0  0  0
    1.5340    0.2225    2.3431 O   0  0  0  0  0  0  0  0  0  0  0  0
    4.6350   -0.1624    1.8941 O   0  0  0  0  0  0  0  0  0  0  0  0
    4.5751    1.4208    0.2448 O   0  0  0  0  0  0  0  0  0  0  0  0
   -1.6561   -0.0409    2.3015 O   0  0  0  0  0  0  0  0  0  0  0  0
   -1.4479    1.9893   -0.0332 O   0  0  0  0  0  0  0  0  0  0  0  0
   -0.0579    5.1208   -1.0733 O   0  0  0  0  0  0  0  0  0  0  0  0
    0.7858    3.5080    0.2959 O   0  0  0  0  0  0  0  0  0  0  0  0
    2.3244   -1.0514    0.5215 N   0  0  0  0  0  0  0  0  0  0  0  0
   -0.7414   -1.0612    0.3955 N   0  0  0  0  0  0  0  0  0  0  0  0
   -2.6759    1.3767   -0.3190 N   0  0  0  0  0  0  0  0  0  0  0  0
   -5.0331   -0.0475   -0.7249 N   0  0  0  0  0  0  0  0  0  0  0  0
   -7.1849   -0.7317   -1.4264 N   0  0  0  0  0  0  0  0  0  0  0  0
    1.5565   -2.2103    0.1024 C   0  0  1  0  0  0  0  0  0  0  0  0
    0.4316   -1.6758    1.0149 C   0  0  1  0  0  0  0  0  0  0  0  0
    1.4887   -0.6447    1.5023 C   0  0  0  0  0  0  0  0  0  0  0  0
    3.5056   -0.6827   -0.0415 C   0  0  0  0  0  0  0  0  0  0  0  0
    3.0496   -2.1351   -2.0780 C   0  0  0  0  0  0  0  0  0  0  0  0
    3.9048   -1.1940   -1.2315 C   0  0  0  0  0  0  0  0  0  0  0  0
    4.2928    0.3269    0.6870 C   0  0  0  0  0  0  0  0  0  0  0  0
   -1.6577   -0.3095    1.1110 C   0  0  0  0  0  0  0  0  0  0  0  0
    5.1772   -0.9029   -1.8655 C   0  0  0  0  0  0  0  0  0  0  0  0
   -2.7822    0.2174    0.2574 C   0  0  0  0  0  0  0  0  0  0  0  0
    6.3164   -0.8066   -1.1910 C   0  0  0  0  0  0  0  0  0  0  0  0
   -4.0157   -0.5511    0.0620 C   0  0  0  0  0  0  0  0  0  0  0  0
   -4.2465   -1.7880    0.6268 C   0  0  0  0  0  0  0  0  0  0  0  0
   -6.0226   -0.9126   -0.7449 C   0  0  0  0  0  0  0  0  0  0  0  0
   -1.4154    3.2427   -0.6980 C   0  0  0  0  0  0  0  0  0  0  0  0
   -0.1106    3.9346   -0.4165 C   0  0  0  0  0  0  0  0  0  0  0  0
    1.9924   -3.1569    0.4435 H   0  0  0  0  0  0  0  0  0  0  0  0
    0.1399   -2.3871    1.7968 H   0  0  0  0  0  0  0  0  0  0  0  0
   -0.9058   -1.1843   -0.6009 H   0  0  0  0  0  0  0  0  0  0  0  0
    3.1225   -1.8725   -3.1392 H   0  0  0  0  0  0  0  0  0  0  0  0
    3.4137   -3.1625   -1.9633 H   0  0  0  0  0  0  0  0  0  0  0  0
    5.1807   -0.7462   -2.9403 H   0  0  0  0  0  0  0  0  0  0  0  0
    7.2353   -0.5753   -1.7212 H   0  0  0  0  0  0  0  0  0  0  0  0
    6.4069   -0.9879   -0.1266 H   0  0  0  0  0  0  0  0  0  0  0  0
    5.1635    0.4782    2.4161 H   0  0  0  0  0  0  0  0  0  0  0  0
   -3.6101   -2.3784    1.2708 H   0  0  0  0  0  0  0  0  0  0  0  0
   -1.5027    3.0834   -1.7782 H   0  0  0  0  0  0  0  0  0  0  0  0
   -2.2330    3.8723   -0.3306 H   0  0  0  0  0  0  0  0  0  0  0  0
   -7.9245   -1.4262   -1.4155 H   0  0  0  0  0  0  0  0  0  0  0  0
   -7.3586    0.1046   -1.9741 H   0  0  0  0  0  0  0  0  0  0  0  0
    0.7851    5.5940   -0.9072 H   0  0  0  0  0  0  0  0  0  0  0  0
  1 15  1  0  0  0  0
  1 19  1  0  0  0  0
  2 27  1  0  0  0  0
  2 28  1  0  0  0  0
  3 17  2  0  0  0  0
  4 21  1  0  0  0  0
  4 39  1  0  0  0  0
  5 21  2  0  0  0  0
  6 22  2  0  0  0  0
  7 12  1  0  0  0  0
  7 29  1  0  0  0  0
  8 30  1  0  0  0  0
  8 45  1  0  0  0  0
  9 30  2  0  0  0  0
 10 15  1  0  0  0  0
 10 17  1  0  0  0  0
 10 18  1  0  0  0  0
 11 16  1  0  0  0  0
 11 22  1  0  0  0  0
 11 33  1  0  0  0  0
 12 24  2  0  0  0  0
 13 26  1  0  0  0  0
 13 28  2  0  0  0  0
 14 28  1  0  0  0  0
 14 43  1  0  0  0  0
 14 44  1  0  0  0  0
 15 16  1  0  0  0  0
 15 31  1  1  0  0  0
 16 17  1  0  0  0  0
 16 32  1  1  0  0  0
 18 20  2  0  0  0  0
 18 21  1  0  0  0  0
 19 20  1  0  0  0  0
 19 34  1  0  0  0  0
 19 35  1  0  0  0  0
 20 23  1  0  0  0  0
 22 24  1  0  0  0  0
 23 25  2  0  0  0  0
 23 36  1  0  0  0  0
 24 26  1  0  0  0  0
 25 37  1  0  0  0  0
 25 38  1  0  0  0  0
 26 27  2  0  0  0  0
 27 40  1  0  0  0  0
 29 30  1  0  0  0  0
 29 41  1  0  0  0  0
 29 42  1  0  0  0  0
M  END
>  <PUBCHEM_COMPOUND_CID>
5362065

>  <PUBCHEM_CONFORMER_RMSD>
1

>  <PUBCHEM_CONFORMER_DIVERSEORDER>
1
32
28
20
27
8
26
23
12
13
33
25
3
7
31
15
16
14
24
19
2
17
9
22
6
29
18
5
30
21
4
11
10

>  <PUBCHEM_MMFF94_PARTIAL_CHARGES>
39
1 -0.45
10 -0.39
11 -0.65
12 -0.51
13 -0.57
14 -0.88
15 0.44
16 0.28
17 0.58
18 0.12
19 0.37
2 -0.08
20 -0.14
21 0.71
22 0.63
23 -0.15
24 0.54
25 -0.3
26 0.14
27 -0.11
28 0.46
29 0.34
3 -0.57
30 0.66
33 0.37
36 0.15
37 0.15
38 0.15
39 0.5
4 -0.65
40 0.15
43 0.4
44 0.4
45 0.5
5 -0.57
6 -0.57
7 -0.22
8 -0.65
9 -0.57

>  <PUBCHEM_EFFECTIVE_ROTOR_COUNT>
9.6

>  <PUBCHEM_PHARMACOPHORE_FEATURES>
16
1 11 donor
1 12 acceptor
1 14 donor
1 25 hydrophobe
1 3 acceptor
1 4 acceptor
1 5 acceptor
1 6 acceptor
1 8 acceptor
1 9 acceptor
3 13 14 28 cation
3 4 5 21 anion
3 8 9 30 anion
4 10 15 16 17 rings
5 2 13 26 27 28 rings
6 1 10 15 18 19 20 rings

>  <PUBCHEM_HEAVY_ATOM_COUNT>
30

>  <PUBCHEM_ATOM_DEF_STEREO_COUNT>
2

>  <PUBCHEM_ATOM_UDEF_STEREO_COUNT>
0

>  <PUBCHEM_BOND_DEF_STEREO_COUNT>
1

>  <PUBCHEM_BOND_UDEF_STEREO_COUNT>
0

>  <PUBCHEM_ISOTOPIC_ATOM_COUNT>
0

>  <PUBCHEM_COMPONENT_COUNT>
1

>  <PUBCHEM_CACTVS_TAUTO_COUNT>
4

>  <PUBCHEM_CONFORMER_ID>
0051D19100000001

>  <PUBCHEM_MMFF94_ENERGY>
68.9138

>  <PUBCHEM_FEATURE_SELFOVERLAP>
81.57

>  <PUBCHEM_SHAPE_FINGERPRINT>
10498660 4 18263078821138711413
10670039 82 18260838042907161036
12156800 1 14782032798718167661
12236239 1 14620798219209681011
12788726 201 18041840597978182665
1361 2 18270679895234437365
13782708 43 17988368070349262510
14725015 67 18335968823310867848
14790565 3 17617089206230723517
14840074 17 17988923405446311967
15475509 8 18341053996328439749
15664445 248 18409727374557790739
15961568 22 18336267933486618676
167882 2 17973443501514229141
17492 54 18189909780075682396
1813 80 18342460344329576975
20511986 3 16226318313628615055
21285901 2 18272089375089685476
21344244 246 18051136083922082461
235170 7 18129943369162910230
23522609 53 15553064297194340451
23557571 272 18339931415344438687
23559900 14 18337944719062673321
24771750 20 17825682320232838517
3298306 158 17756718794279998093
4017518 198 17548703332304915772
46194498 28 18202569467090104028
532947 4 18118685658901508345
54039377 194 15123522372011758206
6287921 2 17986663973027452241
6669772 16 17762631976419864981
6913067 236 18271798012787529898
7399639 24 18130213887931100202

>  <PUBCHEM_SHAPE_MULTIPOLES>
559.09
13.68
4.02
1.84
9.09
7.36
-0.33
-8.37
5.02
0.81
1.78
-1.39
-0.49
1.37

>  <PUBCHEM_SHAPE_SELFOVERLAP>
1167.78

>  <PUBCHEM_SHAPE_VOLUME>
318

>  <PUBCHEM_COORDINATE_TYPE>
2
5
10

$$$$
77843966
 OpenBabel10202403123D

 84 88  0  0  1  0  0  0  0  0999 V2000
   -3.5774    2.7790    0.1347 Cl  0  0  0  0  0  0  0  0  0  0  0  0
    1.6473   -1.8316   -2.0838 S   0  0  0  0  0  0  0  0  0  0  0  0
    8.3672    1.9471   -2.7060 S   0  0  0  0  0  0  0  0  0  0  0  0
    0.8810    1.2133    1.3576 O   0  0  0  0  0  0  0  0  0  0  0  0
   -0.7330   -2.2310    2.3722 O   0  5  0  0  0  0  0  0  0  0  0  0
   -1.9048   -0.3902    1.6856 O   0  0  0  0  0  0  0  0  0  0  0  0
   -4.6819    0.6864   -1.8991 O   0  0  0  0  0  0  0  0  0  0  0  0
    3.6960    2.4876    0.4305 O   0  0  0  0  0  0  0  0  0  0  0  0
    4.8507   -0.1140    1.6553 O   0  0  0  0  0  0  0  0  0  0  0  0
   -5.2985    4.8451    1.3956 O   0  0  0  0  0  0  0  0  0  0  0  0
   -8.0410    4.7472    1.6298 O   0  0  0  0  0  0  0  0  0  0  0  0
    4.6458   -2.0976    4.6244 O   0  0  0  0  0  0  0  0  0  0  0  0
    3.1132   -0.9245    3.4440 O   0  0  0  0  0  0  0  0  0  0  0  0
   -2.9471   -3.4987   -0.7487 N   0  3  0  0  0  0  0  0  0  0  0  0
    0.3447   -0.4267   -0.2446 N   0  0  0  0  0  0  0  0  0  0  0  0
   -5.5025   -0.7576   -0.2797 N   0  0  0  0  0  0  0  0  0  0  0  0
    3.1559    0.6371   -0.9102 N   0  0  0  0  0  0  0  0  0  0  0  0
    5.8616    0.2243    0.7448 N   0  0  0  0  0  0  0  0  0  0  0  0
    5.8638    2.3766   -2.2252 N   0  0  0  0  0  0  0  0  0  0  0  0
    6.7287    3.4914   -4.1221 N   0  0  0  0  0  0  0  0  0  0  0  0
   -2.9280   -3.4848   -2.2910 C   0  0  0  0  0  0  0  0  0  0  0  0
   -3.8531   -4.6822   -0.3511 C   0  0  0  0  0  0  0  0  0  0  0  0
   -1.5406   -3.6959   -0.2044 C   0  0  0  0  0  0  0  0  0  0  0  0
   -4.0615   -4.4057   -2.6970 C   0  0  0  0  0  0  0  0  0  0  0  0
   -4.0293   -5.4774   -1.6298 C   0  0  0  0  0  0  0  0  0  0  0  0
   -3.5146   -2.1946   -0.2096 C   0  0  0  0  0  0  0  0  0  0  0  0
   -0.6155   -2.5600   -0.5687 C   0  0  0  0  0  0  0  0  0  0  0  0
   -4.8945   -1.9547   -0.7932 C   0  0  0  0  0  0  0  0  0  0  0  0
    0.8483   -0.2826   -1.5979 C   0  0  1  0  0  0  0  0  0  0  0  0
   -0.4467   -1.4454    0.1789 C   0  0  0  0  0  0  0  0  0  0  0  0
    0.1249   -2.8159   -1.8778 C   0  0  0  0  0  0  0  0  0  0  0  0
    1.7244    0.8716   -1.0474 C   0  0  1  0  0  0  0  0  0  0  0  0
    0.9263    0.6746    0.2763 C   0  0  0  0  0  0  0  0  0  0  0  0
   -1.0954   -1.3452    1.5544 C   0  0  0  0  0  0  0  0  0  0  0  0
   -5.3436    0.4838   -0.8845 C   0  0  0  0  0  0  0  0  0  0  0  0
    3.9897    1.4741   -0.1831 C   0  0  0  0  0  0  0  0  0  0  0  0
   -6.0150    1.6277   -0.2155 C   0  0  0  0  0  0  0  0  0  0  0  0
    5.4270    1.0250   -0.1812 C   0  0  0  0  0  0  0  0  0  0  0  0
   -5.3021    2.7185    0.2820 C   0  0  0  0  0  0  0  0  0  0  0  0
   -7.4039    1.5874   -0.0922 C   0  0  0  0  0  0  0  0  0  0  0  0
    6.3354    1.5187   -1.2507 C   0  0  0  0  0  0  0  0  0  0  0  0
   -5.9781    3.7692    0.9025 C   0  0  0  0  0  0  0  0  0  0  0  0
   -8.0799    2.6378    0.5283 C   0  0  0  0  0  0  0  0  0  0  0  0
   -7.3670    3.7287    1.0257 C   0  0  0  0  0  0  0  0  0  0  0  0
    7.6670    1.1726   -1.3454 C   0  0  0  0  0  0  0  0  0  0  0  0
    5.4066   -0.9857    2.6274 C   0  0  0  0  0  0  0  0  0  0  0  0
    6.8480    2.6688   -3.0462 C   0  0  0  0  0  0  0  0  0  0  0  0
    6.5286   -0.2401    3.3440 C   0  0  0  0  0  0  0  0  0  0  0  0
    5.9066   -2.2362    1.9103 C   0  0  0  0  0  0  0  0  0  0  0  0
    4.2664   -1.3152    3.5819 C   0  0  0  0  0  0  0  0  0  0  0  0
   -2.0105   -3.9759   -2.6240 H   0  0  0  0  0  0  0  0  0  0  0  0
   -2.9731   -2.4671   -2.6873 H   0  0  0  0  0  0  0  0  0  0  0  0
   -4.7983   -4.3429    0.0706 H   0  0  0  0  0  0  0  0  0  0  0  0
   -3.3473   -5.2735    0.4203 H   0  0  0  0  0  0  0  0  0  0  0  0
   -1.6415   -3.8335    0.8752 H   0  0  0  0  0  0  0  0  0  0  0  0
   -1.1693   -4.6548   -0.5884 H   0  0  0  0  0  0  0  0  0  0  0  0
   -5.0286   -3.8946   -2.7035 H   0  0  0  0  0  0  0  0  0  0  0  0
   -3.9065   -4.8216   -3.6974 H   0  0  0  0  0  0  0  0  0  0  0  0
   -4.9402   -6.0825   -1.6162 H   0  0  0  0  0  0  0  0  0  0  0  0
   -3.1772   -6.1502   -1.7841 H   0  0  0  0  0  0  0  0  0  0  0  0
   -3.5607   -2.2729    0.8811 H   0  0  0  0  0  0  0  0  0  0  0  0
   -2.8816   -1.3660   -0.5297 H   0  0  0  0  0  0  0  0  0  0  0  0
   -4.8625   -1.8351   -1.8790 H   0  0  0  0  0  0  0  0  0  0  0  0
   -5.6212   -2.7374   -0.5752 H   0  0  0  0  0  0  0  0  0  0  0  0
    0.0755    0.0604   -2.2972 H   0  0  0  0  0  0  0  0  0  0  0  0
    0.4254   -3.8651   -1.9566 H   0  0  0  0  0  0  0  0  0  0  0  0
   -0.5054   -2.5642   -2.7329 H   0  0  0  0  0  0  0  0  0  0  0  0
    1.5200    1.8350   -1.5290 H   0  0  0  0  0  0  0  0  0  0  0  0
   -6.0503   -0.8292    0.5730 H   0  0  0  0  0  0  0  0  0  0  0  0
    3.5784   -0.1712   -1.3610 H   0  0  0  0  0  0  0  0  0  0  0  0
   -7.9752    0.7471   -0.4787 H   0  0  0  0  0  0  0  0  0  0  0  0
   -9.1622    2.5938    0.6166 H   0  0  0  0  0  0  0  0  0  0  0  0
    8.2529    0.5254   -0.7078 H   0  0  0  0  0  0  0  0  0  0  0  0
   -4.3498    4.7111    1.2270 H   0  0  0  0  0  0  0  0  0  0  0  0
   -8.9925    4.5456    1.6232 H   0  0  0  0  0  0  0  0  0  0  0  0
    7.3731   -0.0106    2.6850 H   0  0  0  0  0  0  0  0  0  0  0  0
    6.9230   -0.8239    4.1830 H   0  0  0  0  0  0  0  0  0  0  0  0
    6.1672    0.7148    3.7440 H   0  0  0  0  0  0  0  0  0  0  0  0
    6.2307   -3.0003    2.6253 H   0  0  0  0  0  0  0  0  0  0  0  0
    6.7532   -2.0330    1.2455 H   0  0  0  0  0  0  0  0  0  0  0  0
    5.1129   -2.6737    1.2930 H   0  0  0  0  0  0  0  0  0  0  0  0
    5.8487    3.9381   -4.3582 H   0  0  0  0  0  0  0  0  0  0  0  0
    7.5147    3.6915   -4.7319 H   0  0  0  0  0  0  0  0  0  0  0  0
    3.8957   -2.2962    5.2246 H   0  0  0  0  0  0  0  0  0  0  0  0
  1 39  1  0  0  0  0
  2 29  1  0  0  0  0
  2 31  1  0  0  0  0
  3 45  1  0  0  0  0
  3 47  1  0  0  0  0
  4 33  2  0  0  0  0
  5 34  1  0  0  0  0
  6 34  2  0  0  0  0
  7 35  2  0  0  0  0
  8 36  2  0  0  0  0
  9 18  1  0  0  0  0
  9 46  1  0  0  0  0
 10 42  1  0  0  0  0
 10 74  1  0  0  0  0
 11 44  1  0  0  0  0
 11 75  1  0  0  0  0
 12 50  1  0  0  0  0
 12 84  1  0  0  0  0
 13 50  2  0  0  0  0
 14 21  1  0  0  0  0
 14 22  1  0  0  0  0
 14 23  1  0  0  0  0
 14 26  1  0  0  0  0
 15 29  1  0  0  0  0
 15 30  1  0  0  0  0
 15 33  1  0  0  0  0
 16 28  1  0  0  0  0
 16 35  1  0  0  0  0
 16 69  1  0  0  0  0
 17 32  1  0  0  0  0
 17 36  1  0  0  0  0
 17 70  1  0  0  0  0
 18 38  2  0  0  0  0
 19 41  1  0  0  0  0
 19 47  2  0  0  0  0
 20 47  1  0  0  0  0
 20 82  1  0  0  0  0
 20 83  1  0  0  0  0
 21 24  1  0  0  0  0
 21 51  1  0  0  0  0
 21 52  1  0  0  0  0
 22 25  1  0  0  0  0
 22 53  1  0  0  0  0
 22 54  1  0  0  0  0
 23 27  1  0  0  0  0
 23 55  1  0  0  0  0
 23 56  1  0  0  0  0
 24 25  1  0  0  0  0
 24 57  1  0  0  0  0
 24 58  1  0  0  0  0
 25 59  1  0  0  0  0
 25 60  1  0  0  0  0
 26 28  1  0  0  0  0
 26 61  1  0  0  0  0
 26 62  1  0  0  0  0
 27 30  2  0  0  0  0
 27 31  1  0  0  0  0
 28 63  1  0  0  0  0
 28 64  1  0  0  0  0
 29 32  1  0  0  0  0
 29 65  1  6  0  0  0
 30 34  1  0  0  0  0
 31 66  1  0  0  0  0
 31 67  1  0  0  0  0
 32 33  1  0  0  0  0
 32 68  1  6  0  0  0
 35 37  1  0  0  0  0
 36 38  1  0  0  0  0
 37 39  2  0  0  0  0
 37 40  1  0  0  0  0
 38 41  1  0  0  0  0
 39 42  1  0  0  0  0
 40 43  2  0  0  0  0
 40 71  1  0  0  0  0
 41 45  2  0  0  0  0
 42 44  2  0  0  0  0
 43 44  1  0  0  0  0
 43 72  1  0  0  0  0
 45 73  1  0  0  0  0
 46 48  1  0  0  0  0
 46 49  1  0  0  0  0
 46 50  1  0  0  0  0
 48 76  1  0  0  0  0
 48 77  1  0  0  0  0
 48 78  1  0  0  0  0
 49 79  1  0  0  0  0
 49 80  1  0  0  0  0
 49 81  1  0  0  0  0
M  CHG  2   5  -1  14   1
M  END
>  <PUBCHEM_COMPOUND_CID>
77843966

>  <PUBCHEM_CONFORMER_RMSD>
1.4

>  <PUBCHEM_CONFORMER_DIVERSEORDER>
1
24
38
7
8
35
32
21
17
46
31
30
11
45
15
27
39
4
5
43
16
9
22
33
48
49
42
6
10
26
36
19
28
13
51
47
50
25
29
44
14
23
12
40
34
3
20
41
2
37
18

>  <PUBCHEM_MMFF94_PARTIAL_CHARGES>
56
1 -0.18
10 -0.53
11 -0.53
12 -0.65
13 -0.57
14 -1.01
15 -0.39
16 -0.73
17 -0.65
18 -0.51
19 -0.57
2 -0.45
20 -0.88
21 0.5
22 0.5
23 0.64
26 0.5
27 -0.28
28 0.3
29 0.44
3 -0.08
30 -0.14
31 0.37
32 0.28
33 0.58
34 1.05
35 0.54
36 0.63
37 0.09
38 0.54
39 0.18
4 -0.57
40 -0.15
41 0.14
42 0.08
43 -0.15
44 0.08
45 -0.11
46 0.34
47 0.46
5 -0.9
50 0.66
6 -0.9
69 0.37
7 -0.57
70 0.37
71 0.15
72 0.15
73 0.15
74 0.45
75 0.45
8 -0.57
82 0.4
83 0.4
84 0.5
9 -0.22

>  <PUBCHEM_EFFECTIVE_ROTOR_COUNT>
16.6

>  <PUBCHEM_PHARMACOPHORE_FEATURES>
23
1 10 donor
1 11 donor
1 12 acceptor
1 13 acceptor
1 14 cation
1 16 donor
1 17 donor
1 18 acceptor
1 20 donor
1 4 acceptor
1 5 acceptor
1 6 acceptor
1 7 acceptor
1 8 acceptor
3 12 13 50 anion
3 19 20 47 cation
3 46 48 49 hydrophobe
3 5 6 34 anion
4 15 29 32 33 rings
5 14 21 22 24 25 rings
5 3 19 41 45 47 rings
6 2 15 27 29 30 31 rings
6 37 39 40 42 43 44 rings

>  <PUBCHEM_HEAVY_ATOM_COUNT>
50

>  <PUBCHEM_ATOM_DEF_STEREO_COUNT>
2

>  <PUBCHEM_ATOM_UDEF_STEREO_COUNT>
0

>  <PUBCHEM_BOND_DEF_STEREO_COUNT>
1

>  <PUBCHEM_BOND_UDEF_STEREO_COUNT>
0

>  <PUBCHEM_ISOTOPIC_ATOM_COUNT>
0

>  <PUBCHEM_COMPONENT_COUNT>
1

>  <PUBCHEM_CACTVS_TAUTO_COUNT>
308

>  <PUBCHEM_CONFORMER_ID>
04A3CDFE00000001

>  <PUBCHEM_MMFF94_ENERGY>
136.6665

>  <PUBCHEM_FEATURE_SELFOVERLAP>
117.102

>  <PUBCHEM_SHAPE_FINGERPRINT>
10439779 11 18341606040769078885
13782708 43 16056058960074809238
14040222 383 18343301458141150193
14294032 229 18271254893446973179
15328684 2 18187633739450358320
15400415 2 18055919788912416757
15439362 3 18199197196034528951
16990350 14 17910678666400869681
19053607 189 18200875080737712629
21133410 127 18046634408989921541
23522609 53 18114750433744523676
3610482 184 18261675968876599399
4197921 191 18113894996227912125
5776283 40 18201727249742188661
9555976 147 18338217358612031803

>  <PUBCHEM_SHAPE_MULTIPOLES>
944.99
24.08
6.73
3.79
7.36
2.12
-2.1
-27.66
3.23
-16.15
2.24
10.77
0.83
-11.53

>  <PUBCHEM_SHAPE_SELFOVERLAP>
1987.554

>  <PUBCHEM_SHAPE_VOLUME>
535.5

>  <PUBCHEM_COORDINATE_TYPE>
2
5
10

$$$$
9835049
 OpenBabel10202403123D

 28 29  0  0  1  0  0  0  0  0999 V2000
    3.3839    0.0601    0.1013 S   0  0  0  0  0  0  0  0  0  0  0  0
    2.0026   -0.5488   -0.5460 O   0  0  0  0  0  0  0  0  0  0  0  0
    0.4732    1.9318   -0.8102 O   0  0  0  0  0  0  0  0  0  0  0  0
   -4.1551   -0.8294   -0.1319 O   0  0  0  0  0  0  0  0  0  0  0  0
    4.5588   -0.6286   -0.7953 O   0  0  0  0  0  0  0  0  0  0  0  0
    3.5117   -0.4465    1.4551 O   0  0  0  0  0  0  0  0  0  0  0  0
    3.4133    1.4872   -0.1602 O   0  0  0  0  0  0  0  0  0  0  0  0
   -1.1815    0.6976    0.4416 N   0  0  0  0  0  0  0  0  0  0  0  0
    0.8752   -0.1818    0.1738 N   0  0  0  0  0  0  0  0  0  0  0  0
   -3.9499    1.3342    0.6235 N   0  0  0  0  0  0  0  0  0  0  0  0
   -0.0037   -1.2222    0.6870 C   0  0  1  0  0  0  0  0  0  0  0  0
   -0.9711   -0.3375    1.4527 C   0  0  0  0  0  0  0  0  0  0  0  0
   -0.8191   -1.9148   -0.4360 C   0  0  0  0  0  0  0  0  0  0  0  0
   -2.1314    0.3480   -0.6070 C   0  0  1  0  0  0  0  0  0  0  0  0
   -1.6546   -0.9418   -1.3218 C   0  0  0  0  0  0  0  0  0  0  0  0
    0.1495    0.9874   -0.1060 C   0  0  0  0  0  0  0  0  0  0  0  0
   -3.5020    0.2052   -0.0206 C   0  0  0  0  0  0  0  0  0  0  0  0
    0.5444   -1.9310    1.3126 H   0  0  0  0  0  0  0  0  0  0  0  0
   -1.8972   -0.8247    1.7689 H   0  0  0  0  0  0  0  0  0  0  0  0
   -0.4913    0.1282    2.3226 H   0  0  0  0  0  0  0  0  0  0  0  0
   -1.5077   -2.6311    0.0297 H   0  0  0  0  0  0  0  0  0  0  0  0
   -0.1483   -2.4929   -1.0825 H   0  0  0  0  0  0  0  0  0  0  0  0
   -2.1648    1.1657   -1.3387 H   0  0  0  0  0  0  0  0  0  0  0  0
   -0.9937   -0.6292   -2.1432 H   0  0  0  0  0  0  0  0  0  0  0  0
   -2.4747   -1.4835   -1.8063 H   0  0  0  0  0  0  0  0  0  0  0  0
   -4.8671    1.3603    1.0565 H   0  0  0  0  0  0  0  0  0  0  0  0
   -3.3854    2.1746    0.6963 H   0  0  0  0  0  0  0  0  0  0  0  0
    4.4194   -0.5949   -1.7708 H   0  0  0  0  0  0  0  0  0  0  0  0
  1  2  1  0  0  0  0
  1  5  1  0  0  0  0
  1  6  2  0  0  0  0
  1  7  2  0  0  0  0
  2  9  1  0  0  0  0
  3 16  2  0  0  0  0
  4 17  2  0  0  0  0
  5 28  1  0  0  0  0
  8 12  1  0  0  0  0
  8 14  1  0  0  0  0
  8 16  1  0  0  0  0
  9 11  1  0  0  0  0
  9 16  1  0  0  0  0
 10 17  1  0  0  0  0
 10 26  1  0  0  0  0
 10 27  1  0  0  0  0
 11 12  1  0  0  0  0
 11 13  1  0  0  0  0
 11 18  1  1  0  0  0
 12 19  1  0  0  0  0
 12 20  1  0  0  0  0
 13 15  1  0  0  0  0
 13 21  1  0  0  0  0
 13 22  1  0  0  0  0
 14 15  1  0  0  0  0
 14 17  1  0  0  0  0
 14 23  1  6  0  0  0
 15 24  1  0  0  0  0
 15 25  1  0  0  0  0
M  END
>  <PUBCHEM_COMPOUND_CID>
9835049

>  <PUBCHEM_CONFORMER_RMSD>
0.6

>  <PUBCHEM_CONFORMER_DIVERSEORDER>
1
5
6
2
3
4

>  <PUBCHEM_MMFF94_PARTIAL_CHARGES>
18
1 1.67
10 -0.8
11 0.3
12 0.3
14 0.36
16 0.69
17 0.57
2 -0.22
26 0.37
27 0.37
28 0.5
3 -0.57
4 -0.57
5 -0.68
6 -0.65
7 -0.65
8 -0.66
9 -0.32

>  <PUBCHEM_EFFECTIVE_ROTOR_COUNT>
4

>  <PUBCHEM_PHARMACOPHORE_FEATURES>
8
1 10 donor
1 3 acceptor
1 4 acceptor
1 5 acceptor
1 6 acceptor
1 7 acceptor
4 1 5 6 7 anion
8 8 9 11 12 13 14 15 16 rings

>  <PUBCHEM_HEAVY_ATOM_COUNT>
17

>  <PUBCHEM_ATOM_DEF_STEREO_COUNT>
2

>  <PUBCHEM_ATOM_UDEF_STEREO_COUNT>
0

>  <PUBCHEM_BOND_DEF_STEREO_COUNT>
0

>  <PUBCHEM_BOND_UDEF_STEREO_COUNT>
0

>  <PUBCHEM_ISOTOPIC_ATOM_COUNT>
0

>  <PUBCHEM_COMPONENT_COUNT>
1

>  <PUBCHEM_CACTVS_TAUTO_COUNT>
2

>  <PUBCHEM_CONFORMER_ID>
0096122900000001

>  <PUBCHEM_MMFF94_ENERGY>
68.7144

>  <PUBCHEM_FEATURE_SELFOVERLAP>
40.657

>  <PUBCHEM_SHAPE_FINGERPRINT>
11132069 177 18272921731056292056
12592029 89 18412266103735600331
13024252 1 16588025718647754111
13581323 91 17917710240438141357
14943859 89 18260545640948248963
14993402 34 18409445890727375455
16945 1 17845919788949841895
18186145 218 18260542329523156652
19026448 4 16917343740491016595
200 152 11887956540574721774
20671657 1 17970922273637665653
21501502 16 17972883836682658165
23402539 116 18343294847289104508
23559900 14 17203607086726268706
296302 2 15482382148946546490
528886 8 18411694383495461419
69090 78 18343299283879674807

>  <PUBCHEM_SHAPE_MULTIPOLES>
303.54
7.05
1.55
1.12
2.91
0.08
0.17
0.6
-0.03
-0.22
-0.23
0.1
-0.16
-0.38

>  <PUBCHEM_SHAPE_SELFOVERLAP>
625.799

>  <PUBCHEM_SHAPE_VOLUME>
175.7

>  <PUBCHEM_COORDINATE_TYPE>
2
5
10

$$$$
123630
 OpenBabel10202403123D

 32 34  0  0  1  0  0  0  0  0999 V2000
    0.0157   -1.4148    0.3388 S   0  0  0  0  0  0  0  0  0  0  0  0
    0.9326   -1.8301    1.3824 O   0  0  0  0  0  0  0  0  0  0  0  0
    0.0431   -2.0564   -0.9626 O   0  0  0  0  0  0  0  0  0  0  0  0
   -3.9044   -0.6287   -1.3156 O   0  0  0  0  0  0  0  0  0  0  0  0
   -1.0824    3.0989   -0.5139 O   0  0  0  0  0  0  0  0  0  0  0  0
   -2.7363    2.2896    0.8299 O   0  0  0  0  0  0  0  0  0  0  0  0
   -2.1600   -0.2357    0.2222 N   0  0  0  0  0  0  0  0  0  0  0  0
    2.5209    0.3863   -0.5342 N   0  0  0  0  0  0  0  0  0  0  0  0
    3.0109   -0.8371   -0.7669 N   0  0  0  0  0  0  0  0  0  0  0  0
    4.2372   -0.8664   -0.2567 N   0  0  0  0  0  0  0  0  0  0  0  0
    0.1424    0.4162    0.1024 C   0  0  2  0  0  0  0  0  0  0  0  0
   -1.6519   -1.3910    0.9778 C   0  0  1  0  0  0  0  0  0  0  0  0
   -1.2863    0.7675   -0.3557 C   0  0  2  0  0  0  0  0  0  0  0  0
   -2.7670   -2.2176    0.3265 C   0  0  0  0  0  0  0  0  0  0  0  0
   -3.1426   -0.9246   -0.4233 C   0  0  0  0  0  0  0  0  0  0  0  0
    1.1834    0.7349   -0.9716 C   0  0  0  0  0  0  0  0  0  0  0  0
    0.5484    1.0683    1.4332 C   0  0  0  0  0  0  0  0  0  0  0  0
   -1.7991    2.1060    0.0674 C   0  0  0  0  0  0  0  0  0  0  0  0
    3.4029    1.1758    0.1261 C   0  0  0  0  0  0  0  0  0  0  0  0
    4.4925    0.3587    0.2939 C   0  0  0  0  0  0  0  0  0  0  0  0
   -1.7157   -1.2467    2.0599 H   0  0  0  0  0  0  0  0  0  0  0  0
   -1.3923    0.6903   -1.4454 H   0  0  0  0  0  0  0  0  0  0  0  0
   -3.5441   -2.5675    1.0114 H   0  0  0  0  0  0  0  0  0  0  0  0
   -2.4473   -3.0358   -0.3229 H   0  0  0  0  0  0  0  0  0  0  0  0
    1.1952    1.8058   -1.2059 H   0  0  0  0  0  0  0  0  0  0  0  0
    0.9944    0.2019   -1.9106 H   0  0  0  0  0  0  0  0  0  0  0  0
   -0.2472    0.9548    2.1794 H   0  0  0  0  0  0  0  0  0  0  0  0
    1.4363    0.6169    1.8852 H   0  0  0  0  0  0  0  0  0  0  0  0
    0.7337    2.1418    1.3191 H   0  0  0  0  0  0  0  0  0  0  0  0
   -1.4033    3.9867   -0.2475 H   0  0  0  0  0  0  0  0  0  0  0  0
    3.2017    2.2005    0.4038 H   0  0  0  0  0  0  0  0  0  0  0  0
    5.4327    0.5852    0.7732 H   0  0  0  0  0  0  0  0  0  0  0  0
  1  2  2  0  0  0  0
  1  3  2  0  0  0  0
  1 11  1  0  0  0  0
  1 12  1  0  0  0  0
  4 15  2  0  0  0  0
  5 18  1  0  0  0  0
  5 30  1  0  0  0  0
  6 18  2  0  0  0  0
  7 12  1  0  0  0  0
  7 13  1  0  0  0  0
  7 15  1  0  0  0  0
  8  9  1  0  0  0  0
  8 16  1  0  0  0  0
  8 19  1  0  0  0  0
  9 10  2  0  0  0  0
 10 20  1  0  0  0  0
 11 13  1  0  0  0  0
 11 16  1  6  0  0  0
 11 17  1  0  0  0  0
 12 14  1  0  0  0  0
 12 21  1  1  0  0  0
 13 18  1  0  0  0  0
 13 22  1  6  0  0  0
 14 15  1  0  0  0  0
 14 23  1  0  0  0  0
 14 24  1  0  0  0  0
 16 25  1  0  0  0  0
 16 26  1  0  0  0  0
 17 27  1  0  0  0  0
 17 28  1  0  0  0  0
 17 29  1  0  0  0  0
 19 20  2  0  0  0  0
 19 31  1  0  0  0  0
 20 32  1  0  0  0  0
M  END
>  <PUBCHEM_COMPOUND_CID>
123630

>  <PUBCHEM_CONFORMER_RMSD>
0.6

>  <PUBCHEM_CONFORMER_DIVERSEORDER>
4
1
6
11
12
15
9
8
13
5
2
3
14
10
7

>  <PUBCHEM_MMFF94_PARTIAL_CHARGES>
22
1 1.1
10 -0.23
11 0.11
12 0.32
13 0.36
14 0.05
15 0.58
16 0.26
18 0.66
19 -0.3
2 -0.65
20 0.08
3 -0.65
30 0.5
31 0.15
32 0.15
4 -0.57
5 -0.65
6 -0.57
7 -0.59
8 0.31
9 -0.42

>  <PUBCHEM_EFFECTIVE_ROTOR_COUNT>
3.6

>  <PUBCHEM_PHARMACOPHORE_FEATURES>
9
1 2 acceptor
1 3 acceptor
1 4 acceptor
1 5 acceptor
1 6 acceptor
3 5 6 18 anion
4 7 12 14 15 rings
5 8 9 10 19 20 rings
7 1 7 11 12 13 14 15 rings

>  <PUBCHEM_HEAVY_ATOM_COUNT>
20

>  <PUBCHEM_ATOM_DEF_STEREO_COUNT>
3

>  <PUBCHEM_ATOM_UDEF_STEREO_COUNT>
0

>  <PUBCHEM_BOND_DEF_STEREO_COUNT>
0

>  <PUBCHEM_BOND_UDEF_STEREO_COUNT>
0

>  <PUBCHEM_ISOTOPIC_ATOM_COUNT>
0

>  <PUBCHEM_COMPONENT_COUNT>
1

>  <PUBCHEM_CACTVS_TAUTO_COUNT>
1

>  <PUBCHEM_CONFORMER_ID>
0001E2EE00000004

>  <PUBCHEM_MMFF94_ENERGY>
41.7865

>  <PUBCHEM_FEATURE_SELFOVERLAP>
49.428

>  <PUBCHEM_SHAPE_FINGERPRINT>
10062212 137 18268142072327265682
10366900 7 18271246148693033360
104564 63 18412262813995808169
10863032 1 18199750254350920390
11315181 36 18186803613146888296
12403814 3 17917427674302458335
13140716 1 18192723464669274707
14251745 187 18413102866206283673
14614273 12 18341058410805675265
16752209 62 18411416202832558786
16945 1 18336282217935557926
17357779 13 18271794778898455285
192875 21 18333731351069894388
19862831 5 17603578664264778110
200 152 17846498153572569694
20510252 161 18412830204776829568
20525323 117 18411705357068187975
21501502 16 18266171730231066803
22344851 341 18192441765974813715
23402539 116 18341607152959737583
23419403 2 17202747302291837273
23557571 272 18130798840891488532
23558518 356 18262530285122227696
23559900 14 18337105795785661512
2748010 2 18049432944742567267
3286 77 17059772346533828017
353137 74 18260827090271148347
4340502 62 18125455120250296377
5104073 3 18341611495746550856
69090 78 18273210941364360310
81228 2 18336274512753887481
9709674 26 18342183241434629006

>  <PUBCHEM_SHAPE_MULTIPOLES>
366.17
6.5
2.59
1.1
5.01
1.08
0.12
-0.93
-0.91
-1.78
0.21
-0.18
-0.11
0

>  <PUBCHEM_SHAPE_SELFOVERLAP>
777.564

>  <PUBCHEM_SHAPE_VOLUME>
206.9

>  <PUBCHEM_COORDINATE_TYPE>
2
5
10

$$$$
5479530
 OpenBabel10202403123D

 54 57  0  0  1  0  0  0  0  0999 V2000
   -0.7324    1.0326    2.2326 S   0  0  0  0  0  0  0  0  0  0  0  0
    3.2959   -0.7458    0.3114 S   0  0  0  0  0  0  0  0  0  0  0  0
   -3.7694   -3.5773   -1.5035 S   0  0  0  0  0  0  0  0  0  0  0  0
   -1.8066    2.1402   -2.1529 O   0  0  0  0  0  0  0  0  0  0  0  0
    1.2854    2.8401   -2.3046 O   0  0  0  0  0  0  0  0  0  0  0  0
    1.7637    0.6038   -2.2823 O   0  0  0  0  0  0  0  0  0  0  0  0
   -4.8026    1.5169   -1.2048 O   0  0  0  0  0  0  0  0  0  0  0  0
   -6.3310    1.1527    1.4754 O   0  0  0  0  0  0  0  0  0  0  0  0
    7.6497   -1.1975    2.4655 O   0  0  0  0  0  0  0  0  0  0  0  0
    9.0038   -1.2353    0.2247 O   0  0  0  0  0  0  0  0  0  0  0  0
   -0.4663    2.0233   -0.2162 N   0  0  0  0  0  0  0  0  0  0  0  0
   -3.3116    1.1909    0.5787 N   0  0  0  0  0  0  0  0  0  0  0  0
    5.7025   -0.6546   -0.9552 N   0  0  0  0  0  0  0  0  0  0  0  0
   -6.1432   -0.1814    1.0877 N   0  0  0  0  0  0  0  0  0  0  0  0
    5.6218   -1.0374    1.4149 N   0  0  0  0  0  0  0  0  0  0  0  0
    7.0735   -0.8465   -0.9845 N   0  0  0  0  0  0  0  0  0  0  0  0
   -5.5613   -2.7412    0.1615 N   0  0  0  0  0  0  0  0  0  0  0  0
   -5.5578   -5.0737   -0.2251 N   0  0  0  0  0  0  0  0  0  0  0  0
   -1.0608    2.3698    1.0620 C   0  0  1  0  0  0  0  0  0  0  0  0
   -2.4214    2.3249    0.3326 C   0  0  1  0  0  0  0  0  0  0  0  0
   -1.5781    2.1827   -0.9667 C   0  0  0  0  0  0  0  0  0  0  0  0
    0.8364    1.6740   -0.3728 C   0  0  0  0  0  0  0  0  0  0  0  0
    1.6108    1.3380    0.6863 C   0  0  0  0  0  0  0  0  0  0  0  0
    1.0787    1.2227    2.1130 C   0  0  0  0  0  0  0  0  0  0  0  0
    3.0840    1.0180    0.6037 C   0  0  0  0  0  0  0  0  0  0  0  0
    1.3501    1.6139   -1.7495 C   0  0  0  0  0  0  0  0  0  0  0  0
   -4.4067    0.9130   -0.2208 C   0  0  0  0  0  0  0  0  0  0  0  0
   -5.1732   -0.3026    0.2323 C   0  0  0  0  0  0  0  0  0  0  0  0
    5.0682   -0.8235    0.2621 C   0  0  0  0  0  0  0  0  0  0  0  0
   -4.8446   -1.6414   -0.2682 C   0  0  0  0  0  0  0  0  0  0  0  0
   -3.8340   -1.8959   -1.1716 C   0  0  0  0  0  0  0  0  0  0  0  0
    5.0755   -0.4143   -2.2419 C   0  0  0  0  0  0  0  0  0  0  0  0
    6.9915   -1.1012    1.4341 C   0  0  0  0  0  0  0  0  0  0  0  0
    7.7943   -1.0663    0.1611 C   0  0  0  0  0  0  0  0  0  0  0  0
   -5.0819   -3.8160   -0.4241 C   0  0  0  0  0  0  0  0  0  0  0  0
   -7.4027    1.1946    2.4049 C   0  0  0  0  0  0  0  0  0  0  0  0
   -0.7752    3.3702    1.4082 H   0  0  0  0  0  0  0  0  0  0  0  0
   -2.9664    3.2750    0.3836 H   0  0  0  0  0  0  0  0  0  0  0  0
    1.5076    0.3463    2.6097 H   0  0  0  0  0  0  0  0  0  0  0  0
    1.3798    2.1079    2.6839 H   0  0  0  0  0  0  0  0  0  0  0  0
   -3.1333    0.5744    1.3680 H   0  0  0  0  0  0  0  0  0  0  0  0
    3.5946    1.3126    1.5276 H   0  0  0  0  0  0  0  0  0  0  0  0
    3.5600    1.5847   -0.2034 H   0  0  0  0  0  0  0  0  0  0  0  0
    1.6198    2.8459   -3.2268 H   0  0  0  0  0  0  0  0  0  0  0  0
   -3.1463   -1.2087   -1.6441 H   0  0  0  0  0  0  0  0  0  0  0  0
    7.5153   -0.8095   -1.8967 H   0  0  0  0  0  0  0  0  0  0  0  0
    4.5262    0.5317   -2.2291 H   0  0  0  0  0  0  0  0  0  0  0  0
    4.3863   -1.2266   -2.4942 H   0  0  0  0  0  0  0  0  0  0  0  0
    5.8069   -0.3450   -3.0552 H   0  0  0  0  0  0  0  0  0  0  0  0
   -8.3233    0.8267    1.9413 H   0  0  0  0  0  0  0  0  0  0  0  0
   -7.1620    0.5983    3.2905 H   0  0  0  0  0  0  0  0  0  0  0  0
   -7.5548    2.2328    2.7116 H   0  0  0  0  0  0  0  0  0  0  0  0
   -6.3320   -5.2588    0.4041 H   0  0  0  0  0  0  0  0  0  0  0  0
   -5.1582   -5.8775   -0.6983 H   0  0  0  0  0  0  0  0  0  0  0  0
  1 19  1  0  0  0  0
  1 24  1  0  0  0  0
  2 25  1  0  0  0  0
  2 29  1  0  0  0  0
  3 31  1  0  0  0  0
  3 35  1  0  0  0  0
  4 21  2  0  0  0  0
  5 26  1  0  0  0  0
  5 44  1  0  0  0  0
  6 26  2  0  0  0  0
  7 27  2  0  0  0  0
  8 14  1  0  0  0  0
  8 36  1  0  0  0  0
  9 33  2  0  0  0  0
 10 34  2  0  0  0  0
 11 19  1  0  0  0  0
 11 21  1  0  0  0  0
 11 22  1  0  0  0  0
 12 20  1  0  0  0  0
 12 27  1  0  0  0  0
 12 41  1  0  0  0  0
 13 16  1  0  0  0  0
 13 29  1  0  0  0  0
 13 32  1  0  0  0  0
 14 28  2  0  0  0  0
 15 29  2  0  0  0  0
 15 33  1  0  0  0  0
 16 34  1  0  0  0  0
 16 46  1  0  0  0  0
 17 30  1  0  0  0  0
 17 35  2  0  0  0  0
 18 35  1  0  0  0  0
 18 53  1  0  0  0  0
 18 54  1  0  0  0  0
 19 20  1  0  0  0  0
 19 37  1  1  0  0  0
 20 21  1  0  0  0  0
 20 38  1  1  0  0  0
 22 23  2  0  0  0  0
 22 26  1  0  0  0  0
 23 24  1  0  0  0  0
 23 25  1  0  0  0  0
 24 39  1  0  0  0  0
 24 40  1  0  0  0  0
 25 42  1  0  0  0  0
 25 43  1  0  0  0  0
 27 28  1  0  0  0  0
 28 30  1  0  0  0  0
 30 31  2  0  0  0  0
 31 45  1  0  0  0  0
 32 47  1  0  0  0  0
 32 48  1  0  0  0  0
 32 49  1  0  0  0  0
 33 34  1  0  0  0  0
 36 50  1  0  0  0  0
 36 51  1  0  0  0  0
 36 52  1  0  0  0  0
M  END
>  <PUBCHEM_COMPOUND_CID>
5479530

>  <PUBCHEM_CONFORMER_RMSD>
1

>  <PUBCHEM_CONFORMER_DIVERSEORDER>
1
39
20
169
49
112
74
53
165
114
190
58
76
102
88
144
175
158
96
166
98
174
155
141
84
75
107
80
184
167
171
50
100
164
32
104
189
81
140
163
113
17
77
111
193
181
67
65
134
187
185
11
66
147
78
99
71
127
168
70
48
68
162
85
62
56
192
170
92
110
177
45
191
61
157
51
180
188
159
172
128
116
31
121
97
173
133
87
152
186
42
83
143
130
154
151
178
138
156
101
23
120
108
195
94
41
25
89
132
148
63
160
35
126
64
136
28
90
196
47
129
57
82
124
86
52
24
161
12
183
34
139
145
146
16
91
93
137
118
194
115
13
69
117
43
33
72
6
22
149
14
119
131
182
36
27
37
135
21
103
55
73
142
29
18
2
179
123
122
38
4
54
40
30
46
44
95
109
150
8
176
59
153
3
125
105
106
5
15
10
60
26
19
7
79
9

>  <PUBCHEM_MMFF94_PARTIAL_CHARGES>
42
1 -0.45
10 -0.57
11 -0.39
12 -0.65
13 -0.44
14 -0.51
15 -0.66
16 -0.41
17 -0.57
18 -0.88
19 0.44
2 -0.37
20 0.28
21 0.58
22 0.12
23 -0.28
24 0.37
25 0.37
26 0.71
27 0.63
28 0.54
29 0.64
3 -0.08
30 0.14
31 -0.11
32 0.37
33 0.78
34 0.63
35 0.46
36 0.28
4 -0.57
41 0.37
44 0.5
45 0.15
46 0.37
5 -0.65
53 0.4
54 0.4
6 -0.57
7 -0.57
8 -0.22
9 -0.57

>  <PUBCHEM_EFFECTIVE_ROTOR_COUNT>
9.6

>  <PUBCHEM_PHARMACOPHORE_FEATURES>
17
1 10 acceptor
1 12 donor
1 14 acceptor
1 15 donor
1 16 donor
1 18 donor
1 4 acceptor
1 5 acceptor
1 6 acceptor
1 7 acceptor
1 9 acceptor
3 17 18 35 cation
3 5 6 26 anion
4 11 19 20 21 rings
5 3 17 30 31 35 rings
6 1 11 19 22 23 24 rings
6 13 15 16 29 33 34 rings

>  <PUBCHEM_HEAVY_ATOM_COUNT>
36

>  <PUBCHEM_ATOM_DEF_STEREO_COUNT>
2

>  <PUBCHEM_ATOM_UDEF_STEREO_COUNT>
0

>  <PUBCHEM_BOND_DEF_STEREO_COUNT>
1

>  <PUBCHEM_BOND_UDEF_STEREO_COUNT>
0

>  <PUBCHEM_ISOTOPIC_ATOM_COUNT>
0

>  <PUBCHEM_COMPONENT_COUNT>
1

>  <PUBCHEM_CACTVS_TAUTO_COUNT>
8

>  <PUBCHEM_CONFORMER_ID>
00539C6A00000001

>  <PUBCHEM_MMFF94_ENERGY>
85.2106

>  <PUBCHEM_FEATURE_SELFOVERLAP>
86.605

>  <PUBCHEM_SHAPE_FINGERPRINT>
10042902 136 18337670918549000791
10190206 1 13118278132376457630
10391435 84 18342725326368114226
10670039 82 10737287956942266615
11135609 99 18343300396756038092
117089 54 18118970428213750171
12082328 90 16371008464559625929
12643181 29 18343581828830756315
12988421 55 12247688162423964225
13690498 29 17530677685127684717
13782708 43 18410003347860893144
14068700 675 18408603686411620272
14904525 67 8790300263491119154
15183329 4 16732697260040113138
15289351 153 9655580682785480044
15320294 125 18408893919375027231
15461852 350 18260832554403251510
15510800 12 18059572525084089287
18603816 31 18410859858807968843
19303781 99 18041558152017558075
19611394 137 17703785917138790144
20775438 99 17390226267036519248
21033648 29 14979414906371548001
21424621 283 10159701317722644332
22122407 14 10879694538456288822
2747138 104 17632573834889958768
2838139 119 7997963574993782274
397830 11 18129929179176676416
4015057 19 16443360766780499748
437795 139 18336829791932569950
445580 204 9295288343717242870
45377200 153 18411707548483632894
54039377 194 17967541172908973257
6009941 240 17703509900569861433
6371380 46 17988644048374262073
6608658 132 8430314581430080947
6691757 9 18272371920136297473
9953998 17 17989202625085020448
999808 66 17775565317285989236

>  <PUBCHEM_SHAPE_MULTIPOLES>
671.48
22.13
4.1
2.29
27.08
4.67
0.19
16.94
-8.57
-9.02
0.79
1.19
-1.06
-2.12

>  <PUBCHEM_SHAPE_SELFOVERLAP>
1399.254

>  <PUBCHEM_SHAPE_VOLUME>
383.7

>  <PUBCHEM_COORDINATE_TYPE>
2
5
10

$$$$
135413542
 OpenBabel10202403123D

 58 62  0  0  1  0  0  0  0  0999 V2000
   -1.1597    1.7138   -0.9163 S   0  0  0  0  0  0  0  0  0  0  0  0
   -8.3544   -1.4003   -0.1609 S   0  0  0  0  0  0  0  0  0  0  0  0
   -1.3799   -2.7671    0.3319 O   0  0  0  0  0  0  0  0  0  0  0  0
    5.5048    1.6905    0.8699 O   0  0  0  0  0  0  0  0  0  0  0  0
    1.7299   -2.6278   -0.1205 O   0  0  0  0  0  0  0  0  0  0  0  0
    1.9366   -1.4301    1.8167 O   0  0  0  0  0  0  0  0  0  0  0  0
   -4.3877    1.0287   -2.0236 O   0  0  0  0  0  0  0  0  0  0  0  0
   -3.9153    2.6405    0.5827 O   0  0  0  0  0  0  0  0  0  0  0  0
    5.9981   -0.3712   -0.1568 N   0  0  0  0  0  0  0  0  0  0  0  0
   -0.3928   -0.7995   -0.5160 N   0  0  0  0  0  0  0  0  0  0  0  0
    9.3305    0.9526    0.0033 N   0  0  0  0  0  0  0  0  0  0  0  0
   -3.4382   -0.3417   -0.3701 N   0  0  0  0  0  0  0  0  0  0  0  0
   -5.1599    2.0635    0.8488 N   0  0  0  0  0  0  0  0  0  0  0  0
   -7.6123    0.6510    1.1285 N   0  0  0  0  0  0  0  0  0  0  0  0
   -6.8423   -0.8073   -0.5639 N   0  0  0  0  0  0  0  0  0  0  0  0
   -9.7692   -0.1499    1.7432 N   0  0  0  0  0  0  0  0  0  0  0  0
    7.4301   -0.4032   -0.0504 C   0  0  2  0  0  0  0  0  0  0  0  0
   -1.1371   -0.0052   -1.4785 C   0  0  1  0  0  0  0  0  0  0  0  0
   -2.3491   -0.9121   -1.1520 C   0  0  1  0  0  0  0  0  0  0  0  0
    7.9174   -0.3194    1.3954 C   0  0  0  0  0  0  0  0  0  0  0  0
    8.0941    0.7720   -0.7535 C   0  0  0  0  0  0  0  0  0  0  0  0
    5.2809   -1.3798   -0.9077 C   0  0  0  0  0  0  0  0  0  0  0  0
    8.9369    0.8110    1.4031 C   0  0  0  0  0  0  0  0  0  0  0  0
    3.8072   -1.1141   -0.6391 C   0  0  0  0  0  0  0  0  0  0  0  0
   -1.3382   -1.7433   -0.3101 C   0  0  0  0  0  0  0  0  0  0  0  0
    3.8065    0.2751   -0.0863 C   0  0  0  0  0  0  0  0  0  0  0  0
    5.1905    0.6654    0.2894 C   0  0  0  0  0  0  0  0  0  0  0  0
    0.8622   -0.4973   -0.0874 C   0  0  0  0  0  0  0  0  0  0  0  0
    1.4093    0.7216   -0.3151 C   0  0  0  0  0  0  0  0  0  0  0  0
    0.6574    1.8751   -0.9743 C   0  0  0  0  0  0  0  0  0  0  0  0
    2.7631    1.0960    0.0495 C   0  0  0  0  0  0  0  0  0  0  0  0
    1.5687   -1.5473    0.6669 C   0  0  0  0  0  0  0  0  0  0  0  0
   -4.3432    0.5707   -0.8930 C   0  0  0  0  0  0  0  0  0  0  0  0
   -5.3770    1.0209    0.1054 C   0  0  0  0  0  0  0  0  0  0  0  0
   -6.6478    0.2551    0.2174 C   0  0  0  0  0  0  0  0  0  0  0  0
   -8.6202   -0.1870    1.0234 C   0  0  0  0  0  0  0  0  0  0  0  0
    7.7903   -1.3455   -0.4844 H   0  0  0  0  0  0  0  0  0  0  0  0
   -0.7681   -0.1357   -2.5035 H   0  0  0  0  0  0  0  0  0  0  0  0
   -2.7266   -1.4701   -2.0172 H   0  0  0  0  0  0  0  0  0  0  0  0
    8.4038   -1.2646    1.6671 H   0  0  0  0  0  0  0  0  0  0  0  0
    7.1241   -0.1438    2.1293 H   0  0  0  0  0  0  0  0  0  0  0  0
    8.3026    0.5453   -1.8040 H   0  0  0  0  0  0  0  0  0  0  0  0
    7.5005    1.6920   -0.7258 H   0  0  0  0  0  0  0  0  0  0  0  0
    5.5952   -2.3824   -0.5977 H   0  0  0  0  0  0  0  0  0  0  0  0
    5.5204   -1.2429   -1.9685 H   0  0  0  0  0  0  0  0  0  0  0  0
    8.4742    1.7382    1.7614 H   0  0  0  0  0  0  0  0  0  0  0  0
    9.7952    0.5857    2.0426 H   0  0  0  0  0  0  0  0  0  0  0  0
    3.6789   -1.8307    0.1653 H   0  0  0  0  0  0  0  0  0  0  0  0
    3.2110   -1.2903   -1.5357 H   0  0  0  0  0  0  0  0  0  0  0  0
    9.7296    1.8737   -0.1687 H   0  0  0  0  0  0  0  0  0  0  0  0
    0.8887    2.8228   -0.4756 H   0  0  0  0  0  0  0  0  0  0  0  0
    0.9701    1.9649   -2.0209 H   0  0  0  0  0  0  0  0  0  0  0  0
    2.9053    2.0984    0.4447 H   0  0  0  0  0  0  0  0  0  0  0  0
   -3.5563   -0.6127    0.6035 H   0  0  0  0  0  0  0  0  0  0  0  0
    2.1553   -3.3757    0.3515 H   0  0  0  0  0  0  0  0  0  0  0  0
   -3.9086    3.3864    1.2059 H   0  0  0  0  0  0  0  0  0  0  0  0
   -9.9373    0.5623    2.4461 H   0  0  0  0  0  0  0  0  0  0  0  0
  -10.5075   -0.8328    1.6082 H   0  0  0  0  0  0  0  0  0  0  0  0
  1 18  1  0  0  0  0
  1 30  1  0  0  0  0
  2 15  1  0  0  0  0
  2 36  1  0  0  0  0
  3 25  2  0  0  0  0
  4 27  2  0  0  0  0
  5 32  1  0  0  0  0
  5 55  1  0  0  0  0
  6 32  2  0  0  0  0
  7 33  2  0  0  0  0
  8 13  1  0  0  0  0
  8 56  1  0  0  0  0
  9 17  1  0  0  0  0
  9 22  1  0  0  0  0
  9 27  1  0  0  0  0
 10 18  1  0  0  0  0
 10 25  1  0  0  0  0
 10 28  1  0  0  0  0
 11 21  1  0  0  0  0
 11 23  1  0  0  0  0
 11 50  1  0  0  0  0
 12 19  1  0  0  0  0
 12 33  1  0  0  0  0
 12 54  1  0  0  0  0
 13 34  2  0  0  0  0
 14 35  1  0  0  0  0
 14 36  2  0  0  0  0
 15 35  2  0  0  0  0
 16 36  1  0  0  0  0
 16 57  1  0  0  0  0
 16 58  1  0  0  0  0
 17 20  1  0  0  0  0
 17 21  1  0  0  0  0
 17 37  1  6  0  0  0
 18 19  1  0  0  0  0
 18 38  1  6  0  0  0
 19 25  1  0  0  0  0
 19 39  1  6  0  0  0
 20 23  1  0  0  0  0
 20 40  1  0  0  0  0
 20 41  1  0  0  0  0
 21 42  1  0  0  0  0
 21 43  1  0  0  0  0
 22 24  1  0  0  0  0
 22 44  1  0  0  0  0
 22 45  1  0  0  0  0
 23 46  1  0  0  0  0
 23 47  1  0  0  0  0
 24 26  1  0  0  0  0
 24 48  1  0  0  0  0
 24 49  1  0  0  0  0
 26 27  1  0  0  0  0
 26 31  2  0  0  0  0
 28 29  2  0  0  0  0
 28 32  1  0  0  0  0
 29 30  1  0  0  0  0
 29 31  1  0  0  0  0
 30 51  1  0  0  0  0
 30 52  1  0  0  0  0
 31 53  1  0  0  0  0
 33 34  1  0  0  0  0
 34 35  1  0  0  0  0
M  END
>  <PUBCHEM_COMPOUND_CID>
135413542

>  <PUBCHEM_CONFORMER_RMSD>
1

>  <PUBCHEM_CONFORMER_DIVERSEORDER>
6
75
86
11
70
20
48
44
5
66
49
77
59
36
37
82
47
67
42
64
3
79
17
69
22
84
13
90
85
56
76
50
21
15
34
45
62
65
7
71
28
74
38
31
39
27
51
10
60
41
46
23
25
81
32
68
30
89
43
4
2
87
52
78
61
35
63
73
57
80
40
33
72
1
83
88
8
12
54
18
24
29
53
14
19
26
16
55
58
9

>  <PUBCHEM_MMFF94_PARTIAL_CHARGES>
42
1 -0.45
10 -0.39
11 -0.9
12 -0.65
13 -0.51
14 -0.57
15 -0.51
16 -0.88
17 0.3
18 0.44
19 0.28
2 0.18
21 0.27
22 0.3
23 0.27
24 0.14
25 0.58
26 -0.12
27 0.62
28 0.12
29 -0.14
3 -0.57
30 0.37
31 -0.15
32 0.71
33 0.63
34 0.54
35 0.43
36 0.46
4 -0.57
5 -0.65
50 0.36
53 0.15
54 0.37
55 0.5
56 0.4
57 0.4
58 0.4
6 -0.57
7 -0.57
8 -0.34
9 -0.66

>  <PUBCHEM_EFFECTIVE_ROTOR_COUNT>
9.2

>  <PUBCHEM_PHARMACOPHORE_FEATURES>
19
1 11 cation
1 11 donor
1 12 donor
1 13 acceptor
1 16 donor
1 3 acceptor
1 4 acceptor
1 5 acceptor
1 6 acceptor
1 7 acceptor
1 8 anion
3 14 15 35 cation
3 14 16 36 cation
3 5 6 32 anion
4 10 18 19 25 rings
5 11 17 20 21 23 rings
5 2 14 15 35 36 rings
5 9 22 24 26 27 rings
6 1 10 18 28 29 30 rings

>  <PUBCHEM_HEAVY_ATOM_COUNT>
36

>  <PUBCHEM_ATOM_DEF_STEREO_COUNT>
3

>  <PUBCHEM_ATOM_UDEF_STEREO_COUNT>
0

>  <PUBCHEM_BOND_DEF_STEREO_COUNT>
2

>  <PUBCHEM_BOND_UDEF_STEREO_COUNT>
0

>  <PUBCHEM_ISOTOPIC_ATOM_COUNT>
0

>  <PUBCHEM_COMPONENT_COUNT>
1

>  <PUBCHEM_CACTVS_TAUTO_COUNT>
-1

>  <PUBCHEM_CONFORMER_ID>
08123F2600000006

>  <PUBCHEM_MMFF94_ENERGY>
106.035

>  <PUBCHEM_FEATURE_SELFOVERLAP>
96.97

>  <PUBCHEM_SHAPE_FINGERPRINT>
10 15 18040434404078552330
10076449 9 18186802486905660245
10100884 174 18121776390857823599
10369192 42 17418373572009232317
106641 1 18333735719578966251
11181472 205 14907913643420613098
12133447 93 18268442247924146636
12539745 222 14332837279979445175
12664476 115 18411978074691471897
14251764 18 18412543214882580862
14394314 77 18270404880522575809
14415361 349 12540698136970173681
14849402 71 18342459287499266017
14856354 85 16009038275833797083
15183329 4 17917983954319375228
15247644 1 16081088181943479131
15728490 51 18409730690795282871
18335252 98 18114181921739855638
18603816 31 13912611606433222937
18608769 82 18260828219536518878
19315958 150 17917714595915047950
20105231 36 17603866672857684282
21033648 29 17845353588681935752
21095086 128 14851882552349097192
22224240 67 17022903454117533698
23559900 14 18339068411488668596
23576562 1 13397759771024082593
24771293 8 18411984641933578333
3009799 131 12319734765191935615
3178227 256 18186802487385402408
335352 9 18335700580927370990
3383291 50 18335140912440227155
3633792 109 15482676780056821142
4093350 32 17346599643370974878
4325135 7 12035447237879801260
4625314 4 11169917182400942998
59682541 35 18040999556938999848
6009941 240 12247673886195395909
6081469 158 12247685963769623128
6523845 18 15791724226884175392
9663363 56 17458344144679661935
9962374 69 18041277780762507485

>  <PUBCHEM_SHAPE_MULTIPOLES>
673.5
29.5
2.09
1.33
4.57
0.21
0.12
-3
11.31
0.77
0.04
0.57
-0.11
0.03

>  <PUBCHEM_SHAPE_SELFOVERLAP>
1441.004

>  <PUBCHEM_SHAPE_VOLUME>
374.3

>  <PUBCHEM_COORDINATE_TYPE>
2
5
10

$$$$
9852981
 OpenBabel10202403123D

 64 68  0  0  1  0  0  0  0  0999 V2000
   -0.3284    1.9670    2.4381 S   0  0  0  0  0  0  0  0  0  0  0  0
    3.6136    3.3909    1.1051 S   0  0  0  0  0  0  0  0  0  0  0  0
    5.4684    1.2803   -0.0774 S   0  0  0  0  0  0  0  0  0  0  0  0
   -2.1903   -4.0696   -0.9088 S   0  0  0  0  0  0  0  0  0  0  0  0
    0.5926   -1.6992   -3.0939 P   0  0  0  0  0  0  0  0  0  0  0  0
   -1.3460    2.8606   -2.0097 O   0  0  0  0  0  0  0  0  0  0  0  0
    2.0544    2.4088   -1.9924 O   0  5  0  0  0  0  0  0  0  0  0  0
    1.9142    4.6725   -1.6929 O   0  0  0  0  0  0  0  0  0  0  0  0
   -4.0045    1.1775   -1.3697 O   0  0  0  0  0  0  0  0  0  0  0  0
   -5.5248    0.1600    1.1414 O   0  0  0  0  0  0  0  0  0  0  0  0
    1.2556   -0.8520   -1.8710 O   0  0  0  0  0  0  0  0  0  0  0  0
    1.9376   -2.3636   -3.7269 O   0  0  0  0  0  0  0  0  0  0  0  0
   -0.0719   -0.7685   -4.0777 O   0  0  0  0  0  0  0  0  0  0  0  0
   -0.2251    3.1097    0.0479 N   0  0  0  0  0  0  0  0  0  0  0  0
   -2.6493    1.2991    0.5431 N   0  0  0  0  0  0  0  0  0  0  0  0
   -4.8463   -1.0015    0.7468 N   0  0  0  0  0  0  0  0  0  0  0  0
    3.2957    0.7207    1.2069 N   0  0  0  0  0  0  0  0  0  0  0  0
   -1.9113   -1.5836   -1.3119 N   0  0  0  0  0  0  0  0  0  0  0  0
   -3.3307   -3.0907   -0.1727 N   0  0  0  0  0  0  0  0  0  0  0  0
    2.1248   -4.1383    1.7481 N   0  3  0  0  0  0  0  0  0  0  0  0
   -0.2631   -2.9281   -2.3829 N   0  0  0  0  0  0  0  0  0  0  0  0
   -1.0081    3.1622    1.2673 C   0  0  1  0  0  0  0  0  0  0  0  0
   -2.1995    2.6839    0.4077 C   0  0  1  0  0  0  0  0  0  0  0  0
   -1.2526    2.9143   -0.8059 C   0  0  0  0  0  0  0  0  0  0  0  0
    1.1271    3.2445   -0.0046 C   0  0  0  0  0  0  0  0  0  0  0  0
    1.3023    2.7889    2.4931 C   0  0  0  0  0  0  0  0  0  0  0  0
    1.8736    3.1418    1.1214 C   0  0  0  0  0  0  0  0  0  0  0  0
    1.7677    3.4658   -1.3783 C   0  0  0  0  0  0  0  0  0  0  0  0
   -3.5049    0.6987   -0.3644 C   0  0  0  0  0  0  0  0  0  0  0  0
   -3.8280   -0.7305   -0.0127 C   0  0  0  0  0  0  0  0  0  0  0  0
    4.0504    1.7120    0.7873 C   0  0  0  0  0  0  0  0  0  0  0  0
   -3.0073   -1.8412   -0.5061 C   0  0  0  0  0  0  0  0  0  0  0  0
    3.8727   -0.4735    0.8211 C   0  0  0  0  0  0  0  0  0  0  0  0
    5.0538   -0.3725    0.1163 C   0  0  0  0  0  0  0  0  0  0  0  0
    3.2706   -1.7359    1.1403 C   0  0  0  0  0  0  0  0  0  0  0  0
   -1.3622   -2.7405   -1.6107 C   0  0  0  0  0  0  0  0  0  0  0  0
    1.8881   -1.8374    1.2636 C   0  0  0  0  0  0  0  0  0  0  0  0
    4.0680   -2.8610    1.3272 C   0  0  0  0  0  0  0  0  0  0  0  0
   -6.6160   -0.2247    1.9631 C   0  0  0  0  0  0  0  0  0  0  0  0
    1.3335   -3.0711    1.5734 C   0  0  0  0  0  0  0  0  0  0  0  0
    3.4582   -4.0687    1.6354 C   0  0  0  0  0  0  0  0  0  0  0  0
    1.5121   -5.4230    2.0740 C   0  0  0  0  0  0  0  0  0  0  0  0
   -7.3644    1.0158    2.4018 C   0  0  0  0  0  0  0  0  0  0  0  0
   -1.1230    4.1806    1.6572 H   0  0  0  0  0  0  0  0  0  0  0  0
   -3.0469    3.3796    0.4243 H   0  0  0  0  0  0  0  0  0  0  0  0
   -2.3316    0.7428    1.3334 H   0  0  0  0  0  0  0  0  0  0  0  0
    1.2072    3.7042    3.0888 H   0  0  0  0  0  0  0  0  0  0  0  0
    1.9665    2.1123    3.0404 H   0  0  0  0  0  0  0  0  0  0  0  0
    5.6839   -1.1452   -0.3018 H   0  0  0  0  0  0  0  0  0  0  0  0
    1.2338   -0.9824    1.1218 H   0  0  0  0  0  0  0  0  0  0  0  0
    5.1511   -2.8308    1.2602 H   0  0  0  0  0  0  0  0  0  0  0  0
   -6.2430   -0.7637    2.8413 H   0  0  0  0  0  0  0  0  0  0  0  0
   -7.2866   -0.8833    1.3995 H   0  0  0  0  0  0  0  0  0  0  0  0
    0.2656   -3.2137    1.6874 H   0  0  0  0  0  0  0  0  0  0  0  0
    4.0238   -4.9776    1.8020 H   0  0  0  0  0  0  0  0  0  0  0  0
    0.0294   -3.8944   -2.5135 H   0  0  0  0  0  0  0  0  0  0  0  0
    2.1277   -6.2349    1.6770 H   0  0  0  0  0  0  0  0  0  0  0  0
    0.5187   -5.4807    1.6202 H   0  0  0  0  0  0  0  0  0  0  0  0
    1.4422   -5.4899    3.1628 H   0  0  0  0  0  0  0  0  0  0  0  0
   -8.2141    0.7552    3.0388 H   0  0  0  0  0  0  0  0  0  0  0  0
   -7.7315    1.5721    1.5329 H   0  0  0  0  0  0  0  0  0  0  0  0
   -6.7020    1.6903    2.9545 H   0  0  0  0  0  0  0  0  0  0  0  0
    1.7650   -0.0408   -2.0827 H   0  0  0  0  0  0  0  0  0  0  0  0
    2.5533   -1.7880   -4.2287 H   0  0  0  0  0  0  0  0  0  0  0  0
  1 22  1  0  0  0  0
  1 26  1  0  0  0  0
  2 27  1  0  0  0  0
  2 31  1  0  0  0  0
  3 31  1  0  0  0  0
  3 34  1  0  0  0  0
  4 19  1  0  0  0  0
  4 36  1  0  0  0  0
  5 11  1  0  0  0  0
  5 12  1  0  0  0  0
  5 13  2  0  0  0  0
  5 21  1  0  0  0  0
  6 24  2  0  0  0  0
  7 28  1  0  0  0  0
  8 28  2  0  0  0  0
  9 29  2  0  0  0  0
 10 16  1  0  0  0  0
 10 39  1  0  0  0  0
 11 63  1  0  0  0  0
 12 64  1  0  0  0  0
 14 22  1  0  0  0  0
 14 24  1  0  0  0  0
 14 25  1  0  0  0  0
 15 23  1  0  0  0  0
 15 29  1  0  0  0  0
 15 46  1  0  0  0  0
 16 30  2  0  0  0  0
 17 31  2  0  0  0  0
 17 33  1  0  0  0  0
 18 32  1  0  0  0  0
 18 36  2  0  0  0  0
 19 32  2  0  0  0  0
 20 40  2  0  0  0  0
 20 41  1  0  0  0  0
 20 42  1  0  0  0  0
 21 36  1  0  0  0  0
 21 56  1  0  0  0  0
 22 23  1  0  0  0  0
 22 44  1  1  0  0  0
 23 24  1  0  0  0  0
 23 45  1  1  0  0  0
 25 27  2  0  0  0  0
 25 28  1  0  0  0  0
 26 27  1  0  0  0  0
 26 47  1  0  0  0  0
 26 48  1  0  0  0  0
 29 30  1  0  0  0  0
 30 32  1  0  0  0  0
 33 34  2  0  0  0  0
 33 35  1  0  0  0  0
 34 49  1  0  0  0  0
 35 37  2  0  0  0  0
 35 38  1  0  0  0  0
 37 40  1  0  0  0  0
 37 50  1  0  0  0  0
 38 41  2  0  0  0  0
 38 51  1  0  0  0  0
 39 43  1  0  0  0  0
 39 52  1  0  0  0  0
 39 53  1  0  0  0  0
 40 54  1  0  0  0  0
 41 55  1  0  0  0  0
 42 57  1  0  0  0  0
 42 58  1  0  0  0  0
 42 59  1  0  0  0  0
 43 60  1  0  0  0  0
 43 61  1  0  0  0  0
 43 62  1  0  0  0  0
M  CHG  2   7  -1  20   1
M  END
>  <PUBCHEM_COMPOUND_CID>
9852981

>  <PUBCHEM_CONFORMER_RMSD>
1.2

>  <PUBCHEM_CONFORMER_DIVERSEORDER>
1
50
16
9
49
41
72
54
14
68
37
10
22
36
48
65
69
32
6
34
3
25
51
43
62
47
52
63
44
35
11
29
71
20
38
66
39
70
30
27
5
7
26
28
42
19
24
55
31
57
46
56
60
13
40
59
21
12
45
64
53
18
4
15
33
23
17
67
61
2
58
8

>  <PUBCHEM_MMFF94_PARTIAL_CHARGES>
51
1 -0.45
10 -0.22
11 -0.77
12 -0.77
13 -0.7
14 -0.39
15 -0.65
16 -0.51
17 -0.57
18 -0.57
19 -0.51
2 -0.16
20 -0.21
21 -0.76
22 0.44
23 0.28
24 0.58
25 -0.14
26 0.37
27 -0.04
28 1.05
29 0.63
3 -0.08
30 0.54
31 0.43
32 0.43
33 0.17
34 -0.11
35 0.05
36 0.46
37 -0.15
38 -0.15
39 0.28
4 0.18
40 0.21
41 0.21
42 0.49
46 0.37
49 0.15
5 1.52
50 0.15
51 0.15
54 0.15
55 0.15
56 0.4
6 -0.57
63 0.5
64 0.5
7 -0.9
8 -0.9
9 -0.57

>  <PUBCHEM_EFFECTIVE_ROTOR_COUNT>
12.6

>  <PUBCHEM_PHARMACOPHORE_FEATURES>
20
1 11 acceptor
1 12 acceptor
1 13 acceptor
1 15 donor
1 16 acceptor
1 17 acceptor
1 21 donor
1 6 acceptor
1 7 acceptor
1 8 acceptor
1 9 acceptor
3 18 19 32 cation
3 18 21 36 cation
3 7 8 28 anion
4 14 22 23 24 rings
4 5 11 12 13 anion
5 3 17 31 33 34 rings
5 4 18 19 32 36 rings
6 1 14 22 25 26 27 rings
6 20 35 37 38 40 41 rings

>  <PUBCHEM_HEAVY_ATOM_COUNT>
43

>  <PUBCHEM_ATOM_DEF_STEREO_COUNT>
2

>  <PUBCHEM_ATOM_UDEF_STEREO_COUNT>
0

>  <PUBCHEM_BOND_DEF_STEREO_COUNT>
1

>  <PUBCHEM_BOND_UDEF_STEREO_COUNT>
0

>  <PUBCHEM_ISOTOPIC_ATOM_COUNT>
0

>  <PUBCHEM_COMPONENT_COUNT>
1

>  <PUBCHEM_CACTVS_TAUTO_COUNT>
8

>  <PUBCHEM_CONFORMER_ID>
0096583500000001

>  <PUBCHEM_MMFF94_ENERGY>
51.2207

>  <PUBCHEM_FEATURE_SELFOVERLAP>
102.108

>  <PUBCHEM_SHAPE_FINGERPRINT>
10190108 129 18334299751864140114
12422481 6 18270688678970279697
13165054 342 18261960755526653892
14004853 49 18048874388067098792
14279260 333 18337664202091445658
15274700 242 18193810822283414768
15297060 5 17274831289188512002
15721738 202 17023487256095323315
18738133 556 11458718260874631609
19319366 153 18337664308895006202
20764821 26 17324917552874750202
20775530 9 18265041453852672760
35225 105 17260429636748039782
463206 1 18267865175569402216
469060 322 18187631527943478112
66674814 147 17758655025956201272

>  <PUBCHEM_SHAPE_MULTIPOLES>
817.36
10.76
7.28
3.22
13.47
3.19
-2.44
-0.77
7.06
-4.48
1.24
0.23
1.48
-2.56

>  <PUBCHEM_SHAPE_SELFOVERLAP>
1693.277

>  <PUBCHEM_SHAPE_VOLUME>
470.4

>  <PUBCHEM_COORDINATE_TYPE>
2
5
10

$$$$
656575
 OpenBabel10202403123D

 56 59  0  0  1  0  0  0  0  0999 V2000
    0.2035    0.7430   -0.1000 S   0  0  0  0  0  0  0  0  0  0  0  0
    6.3351   -0.2457    0.9291 S   0  0  0  0  0  0  0  0  0  0  0  0
    0.7989   -3.8614    0.1720 O   0  0  0  0  0  0  0  0  0  0  0  0
    3.6374   -0.1754    2.2662 O   0  0  0  0  0  0  0  0  0  0  0  0
   -1.5465   -3.4351   -2.3282 O   0  5  0  0  0  0  0  0  0  0  0  0
   -2.8980   -3.6816   -0.4990 O   0  0  0  0  0  0  0  0  0  0  0  0
    6.1111   -1.6958    1.6404 O   0  0  0  0  0  0  0  0  0  0  0  0
    6.4005    0.7752    1.9575 O   0  0  0  0  0  0  0  0  0  0  0  0
    7.3671   -0.3754   -0.0820 O   0  0  0  0  0  0  0  0  0  0  0  0
   -8.2496    1.2341    1.9846 O   0  0  0  0  0  0  0  0  0  0  0  0
   -0.3950   -1.8310    0.1249 N   0  0  0  0  0  0  0  0  0  0  0  0
    2.5737   -1.1335    0.4414 N   0  0  0  0  0  0  0  0  0  0  0  0
   -4.4387    0.1365   -0.9743 N   0  3  0  0  0  0  0  0  0  0  0  0
   -7.5704    3.3038    1.2676 N   0  0  0  0  0  0  0  0  0  0  0  0
    0.0691   -0.7271    0.9423 C   0  0  1  0  0  0  0  0  0  0  0  0
    1.3617   -1.5498    1.1454 C   0  0  1  0  0  0  0  0  0  0  0  0
    0.5913   -2.6994    0.4317 C   0  0  0  0  0  0  0  0  0  0  0  0
   -1.5093   -1.7953   -0.6493 C   0  0  0  0  0  0  0  0  0  0  0  0
   -2.1191   -0.6236   -0.9421 C   0  0  0  0  0  0  0  0  0  0  0  0
   -1.5723    0.7395   -0.5251 C   0  0  0  0  0  0  0  0  0  0  0  0
   -3.3737   -0.4891   -1.7732 C   0  0  0  0  0  0  0  0  0  0  0  0
    3.6271   -0.4701    1.0730 C   0  0  0  0  0  0  0  0  0  0  0  0
    4.7639   -0.1432    0.1238 C   0  0  1  0  0  0  0  0  0  0  0  0
   -2.0396   -3.1067   -1.2179 C   0  0  0  0  0  0  0  0  0  0  0  0
    4.6614    1.2365   -0.4789 C   0  0  0  0  0  0  0  0  0  0  0  0
   -4.5540    1.4714   -0.9839 C   0  0  0  0  0  0  0  0  0  0  0  0
   -5.2595   -0.6493   -0.2640 C   0  0  0  0  0  0  0  0  0  0  0  0
    5.1784    1.4821   -1.7510 C   0  0  0  0  0  0  0  0  0  0  0  0
    4.0491    2.2662    0.2356 C   0  0  0  0  0  0  0  0  0  0  0  0
   -5.5501    2.0889   -0.2411 C   0  0  0  0  0  0  0  0  0  0  0  0
   -6.2740   -0.0870    0.4976 C   0  0  0  0  0  0  0  0  0  0  0  0
   -6.4172    1.2973    0.5063 C   0  0  0  0  0  0  0  0  0  0  0  0
    5.0835    2.7572   -2.3084 C   0  0  0  0  0  0  0  0  0  0  0  0
    3.9540    3.5414   -0.3219 C   0  0  0  0  0  0  0  0  0  0  0  0
    4.4713    3.7867   -1.5939 C   0  0  0  0  0  0  0  0  0  0  0  0
   -7.4710    1.9157    1.2945 C   0  0  0  0  0  0  0  0  0  0  0  0
   -0.5212   -0.5947    1.8568 H   0  0  0  0  0  0  0  0  0  0  0  0
    1.5604   -1.7911    2.1971 H   0  0  0  0  0  0  0  0  0  0  0  0
   -2.1264    1.1195    0.3388 H   0  0  0  0  0  0  0  0  0  0  0  0
   -1.6657    1.4543   -1.3480 H   0  0  0  0  0  0  0  0  0  0  0  0
    2.6566   -1.3130   -0.5566 H   0  0  0  0  0  0  0  0  0  0  0  0
   -3.1914    0.1317   -2.6590 H   0  0  0  0  0  0  0  0  0  0  0  0
   -3.7595   -1.4433   -2.1470 H   0  0  0  0  0  0  0  0  0  0  0  0
    4.7831   -0.8973   -0.6737 H   0  0  0  0  0  0  0  0  0  0  0  0
   -3.8697    2.0383   -1.6029 H   0  0  0  0  0  0  0  0  0  0  0  0
   -5.0970   -1.7191   -0.3099 H   0  0  0  0  0  0  0  0  0  0  0  0
    5.6563    0.6888   -2.3195 H   0  0  0  0  0  0  0  0  0  0  0  0
    3.6470    2.1215    1.2328 H   0  0  0  0  0  0  0  0  0  0  0  0
   -5.5965    3.1687   -0.2936 H   0  0  0  0  0  0  0  0  0  0  0  0
   -6.9310   -0.7360    1.0680 H   0  0  0  0  0  0  0  0  0  0  0  0
    6.1043   -2.4709    1.0308 H   0  0  0  0  0  0  0  0  0  0  0  0
    5.4861    2.9483   -3.2988 H   0  0  0  0  0  0  0  0  0  0  0  0
    3.4801    4.3442    0.2354 H   0  0  0  0  0  0  0  0  0  0  0  0
    4.3979    4.7798   -2.0276 H   0  0  0  0  0  0  0  0  0  0  0  0
   -8.2935    3.7608    1.8147 H   0  0  0  0  0  0  0  0  0  0  0  0
   -6.9775    3.9312    0.7399 H   0  0  0  0  0  0  0  0  0  0  0  0
  1 15  1  0  0  0  0
  1 20  1  0  0  0  0
  2  7  1  0  0  0  0
  2  8  2  0  0  0  0
  2  9  2  0  0  0  0
  2 23  1  0  0  0  0
  3 17  2  0  0  0  0
  4 22  2  0  0  0  0
  5 24  1  0  0  0  0
  6 24  2  0  0  0  0
  7 51  1  0  0  0  0
 10 36  2  0  0  0  0
 11 15  1  0  0  0  0
 11 17  1  0  0  0  0
 11 18  1  0  0  0  0
 12 16  1  0  0  0  0
 12 22  1  0  0  0  0
 12 41  1  0  0  0  0
 13 21  1  0  0  0  0
 13 26  2  0  0  0  0
 13 27  1  0  0  0  0
 14 36  1  0  0  0  0
 14 55  1  0  0  0  0
 14 56  1  0  0  0  0
 15 16  1  0  0  0  0
 15 37  1  1  0  0  0
 16 17  1  0  0  0  0
 16 38  1  1  0  0  0
 18 19  2  0  0  0  0
 18 24  1  0  0  0  0
 19 20  1  0  0  0  0
 19 21  1  0  0  0  0
 20 39  1  0  0  0  0
 20 40  1  0  0  0  0
 21 42  1  0  0  0  0
 21 43  1  0  0  0  0
 22 23  1  0  0  0  0
 23 25  1  0  0  0  0
 23 44  1  6  0  0  0
 25 28  2  0  0  0  0
 25 29  1  0  0  0  0
 26 30  1  0  0  0  0
 26 45  1  0  0  0  0
 27 31  2  0  0  0  0
 27 46  1  0  0  0  0
 28 33  1  0  0  0  0
 28 47  1  0  0  0  0
 29 34  2  0  0  0  0
 29 48  1  0  0  0  0
 30 32  2  0  0  0  0
 30 49  1  0  0  0  0
 31 32  1  0  0  0  0
 31 50  1  0  0  0  0
 32 36  1  0  0  0  0
 33 35  2  0  0  0  0
 33 52  1  0  0  0  0
 34 35  1  0  0  0  0
 34 53  1  0  0  0  0
 35 54  1  0  0  0  0
M  CHG  2   5  -1  13   1
M  END
>  <PUBCHEM_COMPOUND_CID>
656575

>  <PUBCHEM_CONFORMER_RMSD>
1

>  <PUBCHEM_CONFORMER_DIVERSEORDER>
1
29
53
64
57
5
37
24
51
41
14
12
58
62
6
16
45
43
61
47
36
50
7
48
67
21
23
15
42
2
49
44
65
54
52
35
11
38
8
55
66
30
46
25
28
40
3
39
56
18
22
63
13
34
17
68
33
10
60
4
59
31
9
27
26
20
32
19

>  <PUBCHEM_MMFF94_PARTIAL_CHARGES>
49
1 -0.45
10 -0.57
11 -0.39
12 -0.65
13 -0.21
14 -0.8
15 0.44
16 0.28
17 0.58
18 -0.14
19 -0.28
2 1.38
20 0.37
21 0.63
22 0.57
23 0.31
24 1.05
25 -0.14
26 0.21
27 0.21
28 -0.15
29 -0.15
3 -0.57
30 -0.15
31 -0.15
32 0.09
33 -0.15
34 -0.15
35 -0.15
36 0.54
4 -0.57
41 0.37
45 0.15
46 0.15
47 0.15
48 0.15
49 0.15
5 -0.9
50 0.15
51 0.5
52 0.15
53 0.15
54 0.15
55 0.37
56 0.37
6 -0.9
7 -0.68
8 -0.65
9 -0.65

>  <PUBCHEM_EFFECTIVE_ROTOR_COUNT>
9.6

>  <PUBCHEM_PHARMACOPHORE_FEATURES>
16
1 10 acceptor
1 12 donor
1 14 donor
1 3 acceptor
1 4 acceptor
1 5 acceptor
1 6 acceptor
1 7 acceptor
1 8 acceptor
1 9 acceptor
3 5 6 24 anion
4 11 15 16 17 rings
4 2 7 8 9 anion
6 1 11 15 18 19 20 rings
6 13 26 27 30 31 32 rings
6 25 28 29 33 34 35 rings

>  <PUBCHEM_HEAVY_ATOM_COUNT>
36

>  <PUBCHEM_ATOM_DEF_STEREO_COUNT>
3

>  <PUBCHEM_ATOM_UDEF_STEREO_COUNT>
0

>  <PUBCHEM_BOND_DEF_STEREO_COUNT>
0

>  <PUBCHEM_BOND_UDEF_STEREO_COUNT>
0

>  <PUBCHEM_ISOTOPIC_ATOM_COUNT>
0

>  <PUBCHEM_COMPONENT_COUNT>
1

>  <PUBCHEM_CACTVS_TAUTO_COUNT>
4

>  <PUBCHEM_CONFORMER_ID>
000A04BF00000001

>  <PUBCHEM_MMFF94_ENERGY>
100.4754

>  <PUBCHEM_FEATURE_SELFOVERLAP>
81.576

>  <PUBCHEM_SHAPE_FINGERPRINT>
11115154 58 18410860950368166240
11456790 92 17531236215881498752
11475781 23 16917068862768864352
1200032 147 17386576890025560812
12106331 60 11746927698839209803
12422481 6 17167854275114327903
12616971 3 17968644013046849390
12975358 362 18054807096220330049
13627175 23 18334306357392582832
13726171 33 18195257834798130924
13782708 43 13334729146175675805
14790565 3 18410009940424799565
14840074 17 18040715896198644861
14856354 85 18409444821861254895
15183329 4 18343581871358858797
15297060 5 18130499777897100546
15357212 105 17532952695181741356
19302320 297 18260833687272733088
20691028 202 18342457015825115153
21315764 119 17989212547129640870
21458453 9 17386020498133357209
23559900 14 18340474665243300402
249057 3 18409444787590881918
3178227 256 18113616751488698944
3552219 110 18118395379864671871
3610482 184 18265059213315796805
3633792 109 12751241393446993443
397830 11 16370731456591658341
4173938 77 17458628981703740980
4625314 4 18186515493718770091
5104073 3 17823408474103751952
57724786 102 17458906063350517060
5951187 136 18341345478152111804

>  <PUBCHEM_SHAPE_MULTIPOLES>
681.68
21.03
4.36
1.87
14.53
0.43
-0.13
-16.82
7.76
-0.24
-1.49
-0.6
-0.16
-5.18

>  <PUBCHEM_SHAPE_SELFOVERLAP>
1453.836

>  <PUBCHEM_SHAPE_VOLUME>
379.1

>  <PUBCHEM_COORDINATE_TYPE>
2
5
10

$$$$
51039
 OpenBabel10202403123D

 38 40  0  0  1  0  0  0  0  0999 V2000
    4.3759   -2.8607    0.1803 Cl  0  0  0  0  0  0  0  0  0  0  0  0
    0.4211   -1.2636    1.0217 S   0  0  0  0  0  0  0  0  0  0  0  0
    2.3110    2.5640   -0.8543 O   0  0  0  0  0  0  0  0  0  0  0  0
   -2.1507    2.0851    1.5566 O   0  0  0  0  0  0  0  0  0  0  0  0
    5.3604    0.5101    0.0076 O   0  0  0  0  0  0  0  0  0  0  0  0
    4.3871    0.0327   -2.0061 O   0  0  0  0  0  0  0  0  0  0  0  0
    2.2714    0.5146    0.3114 N   0  0  0  0  0  0  0  0  0  0  0  0
   -0.6351    1.4084   -0.0623 N   0  0  0  0  0  0  0  0  0  0  0  0
   -4.0767    2.3920   -0.3999 N   0  0  0  0  0  0  0  0  0  0  0  0
    1.2515    0.3141    1.3270 C   0  0  1  0  0  0  0  0  0  0  0  0
    0.5689    1.5738    0.7510 C   0  0  1  0  0  0  0  0  0  0  0  0
    1.8682    1.7394   -0.0895 C   0  0  0  0  0  0  0  0  0  0  0  0
    3.2440   -0.3919    0.0343 C   0  0  0  0  0  0  0  0  0  0  0  0
    1.9540   -2.2411    1.2193 C   0  0  0  0  0  0  0  0  0  0  0  0
    3.1419   -1.6662    0.4708 C   0  0  0  0  0  0  0  0  0  0  0  0
   -1.9169    1.6830    0.4179 C   0  0  0  0  0  0  0  0  0  0  0  0
   -3.0082    1.4114   -0.6118 C   0  0  1  0  0  0  0  0  0  0  0  0
    4.3725    0.0641   -0.7926 C   0  0  0  0  0  0  0  0  0  0  0  0
   -3.5054   -0.0155   -0.5080 C   0  0  0  0  0  0  0  0  0  0  0  0
   -2.8881   -1.0009   -1.2576 C   0  0  0  0  0  0  0  0  0  0  0  0
   -4.5653   -0.3008    0.3343 C   0  0  0  0  0  0  0  0  0  0  0  0
   -3.3458   -2.3150   -1.1619 C   0  0  0  0  0  0  0  0  0  0  0  0
   -5.0228   -1.6150    0.4300 C   0  0  0  0  0  0  0  0  0  0  0  0
   -4.4130   -2.6221   -0.3182 C   0  0  0  0  0  0  0  0  0  0  0  0
    1.6341    0.4445    2.3464 H   0  0  0  0  0  0  0  0  0  0  0  0
    0.4597    2.3811    1.4859 H   0  0  0  0  0  0  0  0  0  0  0  0
   -0.5495    1.0672   -1.0168 H   0  0  0  0  0  0  0  0  0  0  0  0
    1.7232   -3.2486    0.8573 H   0  0  0  0  0  0  0  0  0  0  0  0
    2.1915   -2.3136    2.2862 H   0  0  0  0  0  0  0  0  0  0  0  0
   -2.6100    1.5863   -1.6194 H   0  0  0  0  0  0  0  0  0  0  0  0
   -4.7869    2.2823   -1.1235 H   0  0  0  0  0  0  0  0  0  0  0  0
   -3.7028    3.3332   -0.5191 H   0  0  0  0  0  0  0  0  0  0  0  0
   -2.0565   -0.7725   -1.9177 H   0  0  0  0  0  0  0  0  0  0  0  0
   -5.0487    0.4568    0.9434 H   0  0  0  0  0  0  0  0  0  0  0  0
    6.1360    0.8252   -0.5037 H   0  0  0  0  0  0  0  0  0  0  0  0
   -2.8705   -3.0993   -1.7438 H   0  0  0  0  0  0  0  0  0  0  0  0
   -5.8510   -1.8554    1.0903 H   0  0  0  0  0  0  0  0  0  0  0  0
   -4.7684   -3.6456   -0.2425 H   0  0  0  0  0  0  0  0  0  0  0  0
  1 15  1  0  0  0  0
  2 10  1  0  0  0  0
  2 14  1  0  0  0  0
  3 12  2  0  0  0  0
  4 16  2  0  0  0  0
  5 18  1  0  0  0  0
  5 35  1  0  0  0  0
  6 18  2  0  0  0  0
  7 10  1  0  0  0  0
  7 12  1  0  0  0  0
  7 13  1  0  0  0  0
  8 11  1  0  0  0  0
  8 16  1  0  0  0  0
  8 27  1  0  0  0  0
  9 17  1  0  0  0  0
  9 31  1  0  0  0  0
  9 32  1  0  0  0  0
 10 11  1  0  0  0  0
 10 25  1  1  0  0  0
 11 12  1  0  0  0  0
 11 26  1  1  0  0  0
 13 15  2  0  0  0  0
 13 18  1  0  0  0  0
 14 15  1  0  0  0  0
 14 28  1  0  0  0  0
 14 29  1  0  0  0  0
 16 17  1  0  0  0  0
 17 19  1  0  0  0  0
 17 30  1  6  0  0  0
 19 20  2  0  0  0  0
 19 21  1  0  0  0  0
 20 22  1  0  0  0  0
 20 33  1  0  0  0  0
 21 23  2  0  0  0  0
 21 34  1  0  0  0  0
 22 24  2  0  0  0  0
 22 36  1  0  0  0  0
 23 24  1  0  0  0  0
 23 37  1  0  0  0  0
 24 38  1  0  0  0  0
M  END
>  <PUBCHEM_COMPOUND_CID>
51039

>  <PUBCHEM_CONFORMER_RMSD>
0.8

>  <PUBCHEM_CONFORMER_DIVERSEORDER>
1
4
5
8
6
16
14
19
12
2
15
3
9
7
11
18
17
10
13

>  <PUBCHEM_MMFF94_PARTIAL_CHARGES>
32
1 -0.14
10 0.44
11 0.28
12 0.58
13 0.12
14 0.37
16 0.57
17 0.47
18 0.71
19 -0.14
2 -0.45
20 -0.15
21 -0.15
22 -0.15
23 -0.15
24 -0.15
27 0.37
3 -0.57
31 0.36
32 0.36
33 0.15
34 0.15
35 0.5
36 0.15
37 0.15
38 0.15
4 -0.57
5 -0.65
6 -0.57
7 -0.39
8 -0.65
9 -0.99

>  <PUBCHEM_EFFECTIVE_ROTOR_COUNT>
5.6

>  <PUBCHEM_PHARMACOPHORE_FEATURES>
11
1 3 acceptor
1 4 acceptor
1 5 acceptor
1 6 acceptor
1 8 donor
1 9 cation
1 9 donor
3 5 6 18 anion
4 7 10 11 12 rings
6 19 20 21 22 23 24 rings
6 2 7 10 13 14 15 rings

>  <PUBCHEM_HEAVY_ATOM_COUNT>
24

>  <PUBCHEM_ATOM_DEF_STEREO_COUNT>
3

>  <PUBCHEM_ATOM_UDEF_STEREO_COUNT>
0

>  <PUBCHEM_BOND_DEF_STEREO_COUNT>
0

>  <PUBCHEM_BOND_UDEF_STEREO_COUNT>
0

>  <PUBCHEM_ISOTOPIC_ATOM_COUNT>
0

>  <PUBCHEM_COMPONENT_COUNT>
1

>  <PUBCHEM_CACTVS_TAUTO_COUNT>
2

>  <PUBCHEM_CONFORMER_ID>
0000C75F00000001

>  <PUBCHEM_MMFF94_ENERGY>
68.4575

>  <PUBCHEM_FEATURE_SELFOVERLAP>
56.135

>  <PUBCHEM_SHAPE_FINGERPRINT>
10616163 171 18412542120082846431
10928967 22 18130505361513295719
11552529 35 14619365645520257325
12553582 1 18341600564759648963
12596599 1 18199477566776979620
12633257 1 14979375323283067238
13631057 29 18342172318847134496
13726171 33 18059030426901646568
14251751 93 18412827984262698925
14251757 5 18339929311001088871
14576447 43 18409449202416133904
14617045 38 18411140234352198139
14931854 50 18334008415073448743
15196674 1 18337106770046678170
15537594 2 18410863165695480699
17349148 13 18114452435970648440
17492 89 18410569591643293035
17909252 39 18342459300220501626
20291156 8 18340480149483572499
21054139 6 18334857247219709462
21634736 98 18411417353604193232
221357 26 18410007780077601835
221490 88 18408603681794640075
22393880 68 18409729539100216116
23379529 103 18271529676274390622
235170 7 16588015814669830847
23559900 14 18342162397927082737
2838139 119 16371017308488022460
2871803 45 18263634221008877943
329604 57 18334576862500443658
4280585 95 17762903165319627686

>  <PUBCHEM_SHAPE_MULTIPOLES>
461.21
11.22
3.22
1.28
0.37
0.5
-0.12
4.63
-2.54
0.85
0.08
-0.36
0.05
-1.12

>  <PUBCHEM_SHAPE_SELFOVERLAP>
968.489

>  <PUBCHEM_SHAPE_VOLUME>
261.9

>  <PUBCHEM_COORDINATE_TYPE>
2
5
10

$$$$
5282242
 OpenBabel10202403123D

 41 43  0  0  1  0  0  0  0  0999 V2000
   -1.5645    1.2601   -2.2732 S   0  0  0  0  0  0  0  0  0  0  0  0
    5.2661    2.0499   -0.1222 S   0  0  0  0  0  0  0  0  0  0  0  0
   -2.0387    0.3123    2.2809 O   0  0  0  0  0  0  0  0  0  0  0  0
   -4.6933    0.2563    1.7830 O   0  0  0  0  0  0  0  0  0  0  0  0
    1.1045    0.4494    2.2603 O   0  0  0  0  0  0  0  0  0  0  0  0
   -5.5012   -1.1659    0.1846 O   0  0  0  0  0  0  0  0  0  0  0  0
   -0.9795   -3.5322   -0.3621 O   0  0  0  0  0  0  0  0  0  0  0  0
    0.3506   -2.2539   -1.6849 O   0  0  0  0  0  0  0  0  0  0  0  0
   -2.7078    0.9677    0.1211 N   0  0  0  0  0  0  0  0  0  0  0  0
    0.3448    0.8061    0.0974 N   0  0  0  0  0  0  0  0  0  0  0  0
    4.6555   -0.4587   -0.2496 N   0  0  0  0  0  0  0  0  0  0  0  0
    6.8702    0.0704   -0.8863 N   0  0  0  0  0  0  0  0  0  0  0  0
   -1.8818    1.9124   -0.6122 C   0  0  1  0  0  0  0  0  0  0  0  0
   -0.8098    1.6479    0.4608 C   0  0  1  0  0  0  0  0  0  0  0  0
   -1.9222    0.8645    1.2123 C   0  0  0  0  0  0  0  0  0  0  0  0
   -3.8758    0.4823   -0.3556 C   0  0  0  0  0  0  0  0  0  0  0  0
   -3.3365    1.1934   -2.7288 C   0  0  0  0  0  0  0  0  0  0  0  0
   -4.2123    0.5966   -1.6524 C   0  0  0  0  0  0  0  0  0  0  0  0
    1.2055    0.2787    1.0473 C   0  0  0  0  0  0  0  0  0  0  0  0
   -4.7817   -0.2466    0.5334 C   0  0  0  0  0  0  0  0  0  0  0  0
    2.3571   -0.4984    0.4771 C   0  0  0  0  0  0  0  0  0  0  0  0
    3.5600    0.2352    0.1876 C   0  0  0  0  0  0  0  0  0  0  0  0
    2.2068   -1.8325    0.3539 C   0  0  0  0  0  0  0  0  0  0  0  0
    0.9652   -2.6252    0.6482 C   0  0  0  0  0  0  0  0  0  0  0  0
    3.6760    1.5874    0.3239 C   0  0  0  0  0  0  0  0  0  0  0  0
    5.6270    0.4042   -0.4478 C   0  0  0  0  0  0  0  0  0  0  0  0
    0.1158   -2.7613   -0.5969 C   0  0  0  0  0  0  0  0  0  0  0  0
   -2.2854    2.9320   -0.5921 H   0  0  0  0  0  0  0  0  0  0  0  0
   -0.4902    2.5543    0.9878 H   0  0  0  0  0  0  0  0  0  0  0  0
    0.5352    0.6128   -0.8832 H   0  0  0  0  0  0  0  0  0  0  0  0
   -3.4135    0.5817   -3.6333 H   0  0  0  0  0  0  0  0  0  0  0  0
   -3.6879    2.2008   -2.9733 H   0  0  0  0  0  0  0  0  0  0  0  0
   -5.1647    0.2035   -2.0028 H   0  0  0  0  0  0  0  0  0  0  0  0
    3.0375   -2.4248   -0.0270 H   0  0  0  0  0  0  0  0  0  0  0  0
   -5.2873   -0.2082    2.4103 H   0  0  0  0  0  0  0  0  0  0  0  0
    0.3621   -2.1634    1.4359 H   0  0  0  0  0  0  0  0  0  0  0  0
    1.2575   -3.6252    0.9866 H   0  0  0  0  0  0  0  0  0  0  0  0
    2.9582    2.3283    0.6471 H   0  0  0  0  0  0  0  0  0  0  0  0
    7.1247   -0.8905   -1.0901 H   0  0  0  0  0  0  0  0  0  0  0  0
    7.5930    0.7687   -1.0262 H   0  0  0  0  0  0  0  0  0  0  0  0
   -1.5399   -3.6233   -1.1622 H   0  0  0  0  0  0  0  0  0  0  0  0
  1 13  1  0  0  0  0
  1 17  1  0  0  0  0
  2 25  1  0  0  0  0
  2 26  1  0  0  0  0
  3 15  2  0  0  0  0
  4 20  1  0  0  0  0
  4 35  1  0  0  0  0
  5 19  2  0  0  0  0
  6 20  2  0  0  0  0
  7 27  1  0  0  0  0
  7 41  1  0  0  0  0
  8 27  2  0  0  0  0
  9 13  1  0  0  0  0
  9 15  1  0  0  0  0
  9 16  1  0  0  0  0
 10 14  1  0  0  0  0
 10 19  1  0  0  0  0
 10 30  1  0  0  0  0
 11 22  1  0  0  0  0
 11 26  2  0  0  0  0
 12 26  1  0  0  0  0
 12 39  1  0  0  0  0
 12 40  1  0  0  0  0
 13 14  1  0  0  0  0
 13 28  1  1  0  0  0
 14 15  1  0  0  0  0
 14 29  1  1  0  0  0
 16 18  2  0  0  0  0
 16 20  1  0  0  0  0
 17 18  1  0  0  0  0
 17 31  1  0  0  0  0
 17 32  1  0  0  0  0
 18 33  1  0  0  0  0
 19 21  1  0  0  0  0
 21 22  1  0  0  0  0
 21 23  2  0  0  0  0
 22 25  2  0  0  0  0
 23 24  1  0  0  0  0
 23 34  1  0  0  0  0
 24 27  1  0  0  0  0
 24 36  1  0  0  0  0
 24 37  1  0  0  0  0
 25 38  1  0  0  0  0
M  END
>  <PUBCHEM_COMPOUND_CID>
5282242

>  <PUBCHEM_CONFORMER_RMSD>
0.8

>  <PUBCHEM_CONFORMER_DIVERSEORDER>
1
104
90
43
50
58
34
113
61
49
44
112
75
56
119
100
86
71
94
5
108
83
62
116
73
101
96
115
23
103
52
82
24
15
30
64
67
53
42
12
19
80
74
105
89
59
92
84
39
54
37
95
35
51
40
31
33
2
45
87
60
65
114
70
28
68
72
36
76
46
8
48
99
109
110
106
41
3
117
32
77
6
38
21
111
85
79
20
14
69
10
102
97
26
78
7
88
18
91
66
47
11
81
107
16
25
63
57
118
29
55
9
17
98
13
27
93
22
4

>  <PUBCHEM_MMFF94_PARTIAL_CHARGES>
35
1 -0.45
10 -0.65
11 -0.57
12 -0.88
13 0.44
14 0.28
15 0.58
16 0.12
17 0.37
18 -0.29
19 0.62
2 -0.08
20 0.71
21 0.06
22 0.18
23 -0.29
24 0.2
25 -0.11
26 0.46
27 0.66
3 -0.57
30 0.37
33 0.15
34 0.15
35 0.5
38 0.15
39 0.4
4 -0.65
40 0.4
41 0.5
5 -0.57
6 -0.57
7 -0.65
8 -0.57
9 -0.39

>  <PUBCHEM_EFFECTIVE_ROTOR_COUNT>
7.6

>  <PUBCHEM_PHARMACOPHORE_FEATURES>
14
1 10 donor
1 12 donor
1 3 acceptor
1 4 acceptor
1 5 acceptor
1 6 acceptor
1 7 acceptor
1 8 acceptor
3 11 12 26 cation
3 4 6 20 anion
3 7 8 27 anion
4 9 13 14 15 rings
5 2 11 22 25 26 rings
6 1 9 13 16 17 18 rings

>  <PUBCHEM_HEAVY_ATOM_COUNT>
27

>  <PUBCHEM_ATOM_DEF_STEREO_COUNT>
2

>  <PUBCHEM_ATOM_UDEF_STEREO_COUNT>
0

>  <PUBCHEM_BOND_DEF_STEREO_COUNT>
1

>  <PUBCHEM_BOND_UDEF_STEREO_COUNT>
0

>  <PUBCHEM_ISOTOPIC_ATOM_COUNT>
0

>  <PUBCHEM_COMPONENT_COUNT>
1

>  <PUBCHEM_CACTVS_TAUTO_COUNT>
4

>  <PUBCHEM_CONFORMER_ID>
005099C200000001

>  <PUBCHEM_MMFF94_ENERGY>
63.439

>  <PUBCHEM_FEATURE_SELFOVERLAP>
71.424

>  <PUBCHEM_SHAPE_FINGERPRINT>
10674148 151 16845582989445192248
10759866 29 18115013126608124690
11488393 25 18194685861044944210
11578080 2 18121787128000861077
12156800 1 17837242576417565847
12236239 1 17489595562547636160
12553582 1 17703211950140775041
12596599 1 15912171318954656471
12969540 114 18335692862871328036
13583140 156 17748830717958347424
13911987 19 18408881849831642948
13965767 371 13192282866411227909
14114206 34 17417513740699437457
14747281 78 17830450583907993269
14840074 17 18187370973203437557
15209289 33 17561080310921419305
15238133 3 10375594849183090315
15537594 2 17275102808261906935
17492 54 18339061753709020567
17980427 23 14346081884228354575
19489759 90 15936407840380018121
20511986 3 13407070461511087544
21344244 181 17632309977289412918
23227448 37 17604715606849264468
23557571 272 17095530543760478133
23559900 14 17098590424295995040
238 59 18194099846699652070
24893992 56 11455897967180685431
2818148 4 16342847742657908879
4325135 7 17894351090073121357
469060 322 17605258773856441958
5951187 136 16305664325164507565
59755656 520 18271813432004816302
6009941 240 12823297892352637638

>  <PUBCHEM_SHAPE_MULTIPOLES>
508.21
11.97
2.71
1.94
8.91
2.3
0.22
-3.79
1.48
0.34
1.01
-2.06
-0.41
0.94

>  <PUBCHEM_SHAPE_SELFOVERLAP>
1067.164

>  <PUBCHEM_SHAPE_VOLUME>
288.1

>  <PUBCHEM_COORDINATE_TYPE>
2
5
10

$$$$
5281006
 OpenBabel10202403123D

 46 48  0  0  1  0  0  0  0  0999 V2000
    0.2350   -0.9159    0.9855 S   0  0  0  0  0  0  0  0  0  0  0  0
    1.9019    3.0195   -0.8461 O   0  0  0  0  0  0  0  0  0  0  0  0
   -2.4917    2.2993    1.6224 O   0  0  0  0  0  0  0  0  0  0  0  0
    3.7727    0.4868   -2.1363 O   0  0  0  0  0  0  0  0  0  0  0  0
    5.0935    1.1693   -0.3987 O   0  0  0  0  0  0  0  0  0  0  0  0
   -4.9489   -3.7835   -0.2074 O   0  0  0  0  0  0  0  0  0  0  0  0
    1.9849    0.9590    0.2997 N   0  0  0  0  0  0  0  0  0  0  0  0
   -0.9704    1.7165   -0.0274 N   0  0  0  0  0  0  0  0  0  0  0  0
   -4.4590    2.5432   -0.3017 N   0  0  0  0  0  0  0  0  0  0  0  0
    0.9856    0.6930    1.3190 C   0  0  1  0  0  0  0  0  0  0  0  0
    0.2363    1.9265    0.7707 C   0  0  1  0  0  0  0  0  0  0  0  0
    1.5130    2.1653   -0.0844 C   0  0  0  0  0  0  0  0  0  0  0  0
    3.0030    0.1099   -0.0012 C   0  0  0  0  0  0  0  0  0  0  0  0
    1.8165   -1.8121    1.1662 C   0  0  0  0  0  0  0  0  0  0  0  0
    2.9880   -1.1790    0.4176 C   0  0  0  0  0  0  0  0  0  0  0  0
   -2.2566    1.9245    0.4748 C   0  0  0  0  0  0  0  0  0  0  0  0
    4.0864    0.6547   -0.8375 C   0  0  0  0  0  0  0  0  0  0  0  0
   -3.3494    1.6165   -0.5431 C   0  0  1  0  0  0  0  0  0  0  0  0
    4.0633   -2.1278    0.1954 C   0  0  0  0  0  0  0  0  0  0  0  0
   -3.7784    0.1667   -0.4528 C   0  0  0  0  0  0  0  0  0  0  0  0
    5.3494   -1.7989    0.2942 C   0  0  0  0  0  0  0  0  0  0  0  0
   -3.6492   -0.6450   -1.5653 C   0  0  0  0  0  0  0  0  0  0  0  0
   -4.2903   -0.3114    0.7400 C   0  0  0  0  0  0  0  0  0  0  0  0
    6.4596   -2.7706    0.0631 C   0  0  0  0  0  0  0  0  0  0  0  0
   -4.0452   -1.9800   -1.4821 C   0  0  0  0  0  0  0  0  0  0  0  0
   -4.6862   -1.6463    0.8231 C   0  0  0  0  0  0  0  0  0  0  0  0
   -4.5637   -2.4806   -0.2878 C   0  0  0  0  0  0  0  0  0  0  0  0
    1.3694    0.8238    2.3378 H   0  0  0  0  0  0  0  0  0  0  0  0
    0.1005    2.7178    1.5188 H   0  0  0  0  0  0  0  0  0  0  0  0
   -0.8843    1.3861   -0.9858 H   0  0  0  0  0  0  0  0  0  0  0  0
    1.6280   -2.8273    0.7998 H   0  0  0  0  0  0  0  0  0  0  0  0
    2.0596   -1.8828    2.2326 H   0  0  0  0  0  0  0  0  0  0  0  0
   -2.9605    1.8319   -1.5463 H   0  0  0  0  0  0  0  0  0  0  0  0
    3.7789   -3.1358   -0.0942 H   0  0  0  0  0  0  0  0  0  0  0  0
    5.6713   -0.8286    0.6513 H   0  0  0  0  0  0  0  0  0  0  0  0
   -5.1790    2.4018   -1.0098 H   0  0  0  0  0  0  0  0  0  0  0  0
   -4.1339    3.5022   -0.4225 H   0  0  0  0  0  0  0  0  0  0  0  0
    4.4691    0.8356   -2.7326 H   0  0  0  0  0  0  0  0  0  0  0  0
   -3.2462   -0.2667   -2.5001 H   0  0  0  0  0  0  0  0  0  0  0  0
   -4.3982    0.3237    1.6142 H   0  0  0  0  0  0  0  0  0  0  0  0
    6.0945   -3.7594   -0.2323 H   0  0  0  0  0  0  0  0  0  0  0  0
    7.0520   -2.8849    0.9761 H   0  0  0  0  0  0  0  0  0  0  0  0
    7.1175   -2.4006   -0.7293 H   0  0  0  0  0  0  0  0  0  0  0  0
   -3.9441   -2.6197   -2.3547 H   0  0  0  0  0  0  0  0  0  0  0  0
   -5.0901   -2.0304    1.7559 H   0  0  0  0  0  0  0  0  0  0  0  0
   -4.7938   -4.2117   -1.0669 H   0  0  0  0  0  0  0  0  0  0  0  0
  1 10  1  0  0  0  0
  1 14  1  0  0  0  0
  2 12  2  0  0  0  0
  3 16  2  0  0  0  0
  4 17  1  0  0  0  0
  4 38  1  0  0  0  0
  5 17  2  0  0  0  0
  6 27  1  0  0  0  0
  6 46  1  0  0  0  0
  7 10  1  0  0  0  0
  7 12  1  0  0  0  0
  7 13  1  0  0  0  0
  8 11  1  0  0  0  0
  8 16  1  0  0  0  0
  8 30  1  0  0  0  0
  9 18  1  0  0  0  0
  9 36  1  0  0  0  0
  9 37  1  0  0  0  0
 10 11  1  0  0  0  0
 10 28  1  1  0  0  0
 11 12  1  0  0  0  0
 11 29  1  1  0  0  0
 13 15  2  0  0  0  0
 13 17  1  0  0  0  0
 14 15  1  0  0  0  0
 14 31  1  0  0  0  0
 14 32  1  0  0  0  0
 15 19  1  0  0  0  0
 16 18  1  0  0  0  0
 18 20  1  0  0  0  0
 18 33  1  6  0  0  0
 19 21  2  0  0  0  0
 19 34  1  0  0  0  0
 20 22  2  0  0  0  0
 20 23  1  0  0  0  0
 21 24  1  0  0  0  0
 21 35  1  0  0  0  0
 22 25  1  0  0  0  0
 22 39  1  0  0  0  0
 23 26  2  0  0  0  0
 23 40  1  0  0  0  0
 24 41  1  0  0  0  0
 24 42  1  0  0  0  0
 24 43  1  0  0  0  0
 25 27  2  0  0  0  0
 25 44  1  0  0  0  0
 26 27  1  0  0  0  0
 26 45  1  0  0  0  0
M  END
>  <PUBCHEM_COMPOUND_CID>
5281006

>  <PUBCHEM_CONFORMER_RMSD>
0.8

>  <PUBCHEM_CONFORMER_DIVERSEORDER>
1
23
2
21
24
28
18
3
19
12
26
13
8
9
7
25
4
5
27
15
22
16
6
11
17
14
10
20

>  <PUBCHEM_MMFF94_PARTIAL_CHARGES>
38
1 -0.45
10 0.44
11 0.28
12 0.58
13 0.12
14 0.37
15 -0.14
16 0.57
17 0.71
18 0.47
19 -0.15
2 -0.57
20 -0.14
21 -0.29
22 -0.15
23 -0.15
24 0.14
25 -0.15
26 -0.15
27 0.08
3 -0.57
30 0.37
34 0.15
35 0.15
36 0.36
37 0.36
38 0.5
39 0.15
4 -0.65
40 0.15
44 0.15
45 0.15
46 0.45
5 -0.57
6 -0.53
7 -0.39
8 -0.65
9 -0.99

>  <PUBCHEM_EFFECTIVE_ROTOR_COUNT>
6.6

>  <PUBCHEM_PHARMACOPHORE_FEATURES>
13
1 2 acceptor
1 24 hydrophobe
1 3 acceptor
1 4 acceptor
1 5 acceptor
1 6 donor
1 8 donor
1 9 cation
1 9 donor
3 4 5 17 anion
4 7 10 11 12 rings
6 1 7 10 13 14 15 rings
6 20 22 23 25 26 27 rings

>  <PUBCHEM_HEAVY_ATOM_COUNT>
27

>  <PUBCHEM_ATOM_DEF_STEREO_COUNT>
3

>  <PUBCHEM_ATOM_UDEF_STEREO_COUNT>
0

>  <PUBCHEM_BOND_DEF_STEREO_COUNT>
1

>  <PUBCHEM_BOND_UDEF_STEREO_COUNT>
0

>  <PUBCHEM_ISOTOPIC_ATOM_COUNT>
0

>  <PUBCHEM_COMPONENT_COUNT>
1

>  <PUBCHEM_CACTVS_TAUTO_COUNT>
4

>  <PUBCHEM_CONFORMER_ID>
005094EE00000001

>  <PUBCHEM_MMFF94_ENERGY>
79.8132

>  <PUBCHEM_FEATURE_SELFOVERLAP>
66.285

>  <PUBCHEM_SHAPE_FINGERPRINT>
10928967 22 17987236810344106239
11315621 136 18334295366544632066
11796584 16 18269556040153949196
12633257 1 15410337792541130695
13690498 29 18187082824116528733
13726171 33 17987542414041221672
13782708 43 17773027563383741610
14251751 18 18201716237108197986
14279260 333 18190175694602833546
15484559 13 13708778234673967012
15537594 2 18339653316676239987
17349148 13 18041277678120999328
17492 89 18339074999245593279
17909252 39 18269837682344721690
20775438 99 17477176785044987639
21054139 6 18334858368111221748
21133410 38 15746995350938633347
21709351 56 17895195437788612318
221357 26 18337104674572473915
221490 88 18409165532284003825
22393880 68 18040988501693134353
23379529 103 18342462499786500958
23402539 116 18263082111568833666
235170 7 17314491824943401357
23559900 14 18340193181344605761
249057 3 18263360283563187045
3004659 81 18115305571062658312
329604 57 18409729586075986734
4280585 95 18262224513794598362
439807 62 18334577962518453931
44062 13 18410008802353301229
46194498 28 17241608501662097325
463206 1 18335703784625054088
5104073 3 18060137639273610584
54039377 194 18337119972723911851
633830 44 17023194768611560048
6431902 208 18411975883978725430
7970288 3 17980478181378034111

>  <PUBCHEM_SHAPE_MULTIPOLES>
515.21
13.45
3.76
1.33
4.85
0.74
0.25
10.07
2.46
-1.81
0.07
-0.29
-0.07
-1.39

>  <PUBCHEM_SHAPE_SELFOVERLAP>
1090.478

>  <PUBCHEM_SHAPE_VOLUME>
289.4

>  <PUBCHEM_COORDINATE_TYPE>
2
5
10

$$$$
44187
 OpenBabel10202403123D

 71 75  0  0  1  0  0  0  0  0999 V2000
    2.0542    0.5637   -1.4913 S   0  0  0  0  0  0  0  0  0  0  0  0
    6.4155    0.3910    0.5167 S   0  0  0  0  0  0  0  0  0  0  0  0
    1.4319   -3.5585    0.5662 O   0  0  0  0  0  0  0  0  0  0  0  0
   -2.0385   -0.6201   -1.7335 O   0  0  0  0  0  0  0  0  0  0  0  0
    4.4530   -3.9928   -0.3044 O   0  0  0  0  0  0  0  0  0  0  0  0
    5.1039   -2.5278    1.3265 O   0  0  0  0  0  0  0  0  0  0  0  0
   -3.7100   -1.4233    1.7555 O   0  0  0  0  0  0  0  0  0  0  0  0
   -5.9452    1.1412   -0.7440 O   0  0  0  0  0  0  0  0  0  0  0  0
   -8.5284    1.2338   -0.3233 O   0  0  0  0  0  0  0  0  0  0  0  0
   -0.5843    5.9124   -0.3439 O   0  0  0  0  0  0  0  0  0  0  0  0
    2.5334   -1.9396   -0.7478 N   0  0  0  0  0  0  0  0  0  0  0  0
   -0.3166   -0.9096   -0.2081 N   0  0  0  0  0  0  0  0  0  0  0  0
   -3.6033    0.3728    0.3222 N   0  0  0  0  0  0  0  0  0  0  0  0
   -5.7032   -0.5998    0.8341 N   0  0  0  0  0  0  0  0  0  0  0  0
   -8.4916   -0.9634    0.4615 N   0  0  0  0  0  0  0  0  0  0  0  0
    8.9729    1.0989    1.2998 N   0  0  0  0  0  0  0  0  0  0  0  0
    8.9354    0.0100   -0.5751 N   0  0  0  0  0  0  0  0  0  0  0  0
   10.2551    1.0058    0.9207 N   0  0  0  0  0  0  0  0  0  0  0  0
   10.2259    0.3386   -0.2265 N   0  0  0  0  0  0  0  0  0  0  0  0
    1.7630   -1.2034   -1.7334 C   0  0  1  0  0  0  0  0  0  0  0  0
    0.5085   -1.7921   -1.0514 C   0  0  1  0  0  0  0  0  0  0  0  0
    1.5113   -2.6645   -0.2435 C   0  0  0  0  0  0  0  0  0  0  0  0
    3.8695   -1.7825   -0.5632 C   0  0  0  0  0  0  0  0  0  0  0  0
    4.5347   -0.7217   -1.0793 C   0  0  0  0  0  0  0  0  0  0  0  0
    3.8452    0.4261   -1.8135 C   0  0  0  0  0  0  0  0  0  0  0  0
   -1.5357   -0.3956   -0.6341 C   0  0  0  0  0  0  0  0  0  0  0  0
    6.0282   -0.5194   -0.9875 C   0  0  0  0  0  0  0  0  0  0  0  0
   -2.1690    0.5281    0.3985 C   0  0  1  0  0  0  0  0  0  0  0  0
    4.5488   -2.7805    0.2763 C   0  0  0  0  0  0  0  0  0  0  0  0
   -1.7461    1.9650    0.2009 C   0  0  0  0  0  0  0  0  0  0  0  0
   -4.2877   -0.6151    1.0226 C   0  0  0  0  0  0  0  0  0  0  0  0
   -6.4758   -1.5191    1.6668 C   0  0  0  0  0  0  0  0  0  0  0  0
   -7.6551   -2.0656    0.8929 C   0  0  0  0  0  0  0  0  0  0  0  0
   -2.0029    2.6067   -1.0107 C   0  0  0  0  0  0  0  0  0  0  0  0
   -1.0990    2.6499    1.2295 C   0  0  0  0  0  0  0  0  0  0  0  0
   -6.4168    0.2975    0.0113 C   0  0  0  0  0  0  0  0  0  0  0  0
   -7.9266    0.2308    0.0437 C   0  0  0  0  0  0  0  0  0  0  0  0
    8.1767    0.4896    0.3833 C   0  0  0  0  0  0  0  0  0  0  0  0
   -9.9270   -1.1829    0.4004 C   0  0  0  0  0  0  0  0  0  0  0  0
   -1.6126    3.9332   -1.1938 C   0  0  0  0  0  0  0  0  0  0  0  0
   -0.7088    3.9765    1.0464 C   0  0  0  0  0  0  0  0  0  0  0  0
   -0.9656    4.6181   -0.1653 C   0  0  0  0  0  0  0  0  0  0  0  0
  -10.3402   -1.7862   -0.9260 C   0  0  0  0  0  0  0  0  0  0  0  0
    8.6227    1.7740    2.5239 C   0  0  0  0  0  0  0  0  0  0  0  0
    1.9222   -1.5638   -2.7565 H   0  0  0  0  0  0  0  0  0  0  0  0
   -0.1057   -2.4030   -1.7247 H   0  0  0  0  0  0  0  0  0  0  0  0
    0.0226   -0.6424    0.7130 H   0  0  0  0  0  0  0  0  0  0  0  0
    4.0027    0.3124   -2.8917 H   0  0  0  0  0  0  0  0  0  0  0  0
    4.2801    1.3853   -1.5145 H   0  0  0  0  0  0  0  0  0  0  0  0
    6.3949    0.0205   -1.8681 H   0  0  0  0  0  0  0  0  0  0  0  0
    6.5475   -1.4842   -0.9758 H   0  0  0  0  0  0  0  0  0  0  0  0
   -1.8584    0.1915    1.3960 H   0  0  0  0  0  0  0  0  0  0  0  0
   -4.1152    0.9722   -0.3150 H   0  0  0  0  0  0  0  0  0  0  0  0
   -5.8534   -2.3465    2.0217 H   0  0  0  0  0  0  0  0  0  0  0  0
   -6.8130   -0.9532    2.5442 H   0  0  0  0  0  0  0  0  0  0  0  0
   -7.3302   -2.6108   -0.0005 H   0  0  0  0  0  0  0  0  0  0  0  0
   -8.2317   -2.7447    1.5293 H   0  0  0  0  0  0  0  0  0  0  0  0
    4.8946   -4.6913    0.2242 H   0  0  0  0  0  0  0  0  0  0  0  0
   -2.5094    2.0934   -1.8233 H   0  0  0  0  0  0  0  0  0  0  0  0
   -0.8916    2.1634    2.1787 H   0  0  0  0  0  0  0  0  0  0  0  0
  -10.4346   -0.2191    0.5210 H   0  0  0  0  0  0  0  0  0  0  0  0
  -10.2355   -1.8196    1.2363 H   0  0  0  0  0  0  0  0  0  0  0  0
   -1.8192    4.4220   -2.1421 H   0  0  0  0  0  0  0  0  0  0  0  0
   -0.2047    4.5047    1.8511 H   0  0  0  0  0  0  0  0  0  0  0  0
  -11.4249   -1.9271   -0.9599 H   0  0  0  0  0  0  0  0  0  0  0  0
   -9.8648   -2.7604   -1.0811 H   0  0  0  0  0  0  0  0  0  0  0  0
  -10.0532   -1.1390   -1.7615 H   0  0  0  0  0  0  0  0  0  0  0  0
    8.1194    1.0617    3.1820 H   0  0  0  0  0  0  0  0  0  0  0  0
    9.5297    2.1455    3.0085 H   0  0  0  0  0  0  0  0  0  0  0  0
    7.9648    2.6124    2.2827 H   0  0  0  0  0  0  0  0  0  0  0  0
   -0.8402    6.1955   -1.2386 H   0  0  0  0  0  0  0  0  0  0  0  0
  1 20  1  0  0  0  0
  1 25  1  0  0  0  0
  2 27  1  0  0  0  0
  2 38  1  0  0  0  0
  3 22  2  0  0  0  0
  4 26  2  0  0  0  0
  5 29  1  0  0  0  0
  5 58  1  0  0  0  0
  6 29  2  0  0  0  0
  7 31  2  0  0  0  0
  8 36  2  0  0  0  0
  9 37  2  0  0  0  0
 10 42  1  0  0  0  0
 10 71  1  0  0  0  0
 11 20  1  0  0  0  0
 11 22  1  0  0  0  0
 11 23  1  0  0  0  0
 12 21  1  0  0  0  0
 12 26  1  0  0  0  0
 12 47  1  0  0  0  0
 13 28  1  0  0  0  0
 13 31  1  0  0  0  0
 13 53  1  0  0  0  0
 14 31  1  0  0  0  0
 14 32  1  0  0  0  0
 14 36  1  0  0  0  0
 15 33  1  0  0  0  0
 15 37  1  0  0  0  0
 15 39  1  0  0  0  0
 16 18  1  0  0  0  0
 16 38  1  0  0  0  0
 16 44  1  0  0  0  0
 17 19  1  0  0  0  0
 17 38  2  0  0  0  0
 18 19  2  0  0  0  0
 20 21  1  0  0  0  0
 20 45  1  6  0  0  0
 21 22  1  0  0  0  0
 21 46  1  6  0  0  0
 23 24  2  0  0  0  0
 23 29  1  0  0  0  0
 24 25  1  0  0  0  0
 24 27  1  0  0  0  0
 25 48  1  0  0  0  0
 25 49  1  0  0  0  0
 26 28  1  0  0  0  0
 27 50  1  0  0  0  0
 27 51  1  0  0  0  0
 28 30  1  0  0  0  0
 28 52  1  1  0  0  0
 30 34  2  0  0  0  0
 30 35  1  0  0  0  0
 32 33  1  0  0  0  0
 32 54  1  0  0  0  0
 32 55  1  0  0  0  0
 33 56  1  0  0  0  0
 33 57  1  0  0  0  0
 34 40  1  0  0  0  0
 34 59  1  0  0  0  0
 35 41  2  0  0  0  0
 35 60  1  0  0  0  0
 36 37  1  0  0  0  0
 39 43  1  0  0  0  0
 39 61  1  0  0  0  0
 39 62  1  0  0  0  0
 40 42  2  0  0  0  0
 40 63  1  0  0  0  0
 41 42  1  0  0  0  0
 41 64  1  0  0  0  0
 43 65  1  0  0  0  0
 43 66  1  0  0  0  0
 43 67  1  0  0  0  0
 44 68  1  0  0  0  0
 44 69  1  0  0  0  0
 44 70  1  0  0  0  0
M  END
>  <PUBCHEM_COMPOUND_CID>
44187

>  <PUBCHEM_CONFORMER_RMSD>
1.2

>  <PUBCHEM_CONFORMER_DIVERSEORDER>
1
30
38
12
11
36
40
29
16
22
20
31
37
5
41
24
43
17
42
39
9
25
23
44
3
15
4
32
35
13
28
6
7
34
8
14
19
33
2
21
26
18
10
27

>  <PUBCHEM_MMFF94_PARTIAL_CHARGES>
50
1 -0.45
10 -0.53
11 -0.39
12 -0.65
13 -0.73
14 -0.42
15 -0.66
16 0.31
17 -0.34
18 -0.42
2 -0.29
20 0.44
21 0.28
22 0.58
23 0.12
24 -0.28
25 0.37
26 0.57
27 0.37
28 0.5
29 0.71
3 -0.57
30 -0.14
31 0.69
32 0.3
33 0.3
34 -0.15
35 -0.15
36 0.63
37 0.63
38 0.24
39 0.3
4 -0.57
40 -0.15
41 -0.15
42 0.08
44 0.26
47 0.37
5 -0.65
53 0.37
58 0.5
59 0.15
6 -0.57
60 0.15
63 0.15
64 0.15
7 -0.57
71 0.45
8 -0.57
9 -0.57

>  <PUBCHEM_EFFECTIVE_ROTOR_COUNT>
13.4

>  <PUBCHEM_PHARMACOPHORE_FEATURES>
17
1 10 donor
1 12 donor
1 13 donor
1 3 acceptor
1 4 acceptor
1 5 acceptor
1 6 acceptor
1 7 acceptor
1 8 acceptor
1 9 acceptor
3 16 17 38 cation
3 5 6 29 anion
4 11 20 21 22 rings
5 16 17 18 19 38 rings
6 1 11 20 23 24 25 rings
6 14 15 32 33 36 37 rings
6 30 34 35 40 41 42 rings

>  <PUBCHEM_HEAVY_ATOM_COUNT>
44

>  <PUBCHEM_ATOM_DEF_STEREO_COUNT>
3

>  <PUBCHEM_ATOM_UDEF_STEREO_COUNT>
0

>  <PUBCHEM_BOND_DEF_STEREO_COUNT>
0

>  <PUBCHEM_BOND_UDEF_STEREO_COUNT>
0

>  <PUBCHEM_ISOTOPIC_ATOM_COUNT>
0

>  <PUBCHEM_COMPONENT_COUNT>
1

>  <PUBCHEM_CACTVS_TAUTO_COUNT>
8

>  <PUBCHEM_CONFORMER_ID>
0000AC9B00000001

>  <PUBCHEM_MMFF94_ENERGY>
102.2535

>  <PUBCHEM_FEATURE_SELFOVERLAP>
86.602

>  <PUBCHEM_SHAPE_FINGERPRINT>
10 15 18410291407091241186
10674148 151 11746934312904255262
10930396 42 18408877460248127968
11135609 201 18202559584597643954
11411753 29 17701833077082302158
12202916 173 18335145305917633179
12741549 16 17894629275437778357
13560911 43 18333450946089146812
13811026 1 18334017211013067460
14068700 675 18115595842290679415
14068700 686 18126852594817137175
14118638 360 18335425604705631574
14394314 77 18410580570185992939
15320295 40 17603587439083397910
15347590 135 18333447643142674082
17686467 74 18413390930084819569
18603816 31 13118285919072641320
23559900 14 17969512670963063511
24771293 8 18201729435874559857
4874694 18 18113338626534757995
6004065 56 18410017659040342323

>  <PUBCHEM_SHAPE_MULTIPOLES>
821.41
32.03
4.84
1.6
1.77
5.83
0.22
-8.78
9.76
-0.09
0.02
1.43
0.18
2.46

>  <PUBCHEM_SHAPE_SELFOVERLAP>
1732.479

>  <PUBCHEM_SHAPE_VOLUME>
462.4

>  <PUBCHEM_COORDINATE_TYPE>
2
5
10

$$$$
5479537
 OpenBabel10202403123D

 56 59  0  0  1  0  0  0  0  0999 V2000
   -0.6787    0.5559   -1.8131 S   0  0  0  0  0  0  0  0  0  0  0  0
    4.0175   -3.3202    0.9038 S   0  0  0  0  0  0  0  0  0  0  0  0
    0.4662    1.3076    2.6313 O   0  0  0  0  0  0  0  0  0  0  0  0
   -1.8755   -1.2293    2.7547 O   0  5  0  0  0  0  0  0  0  0  0  0
   -3.2148    0.6124    2.9744 O   0  0  0  0  0  0  0  0  0  0  0  0
    3.3960    1.8233    1.4181 O   0  0  0  0  0  0  0  0  0  0  0  0
    4.6623    2.3569   -1.3682 O   0  0  0  0  0  0  0  0  0  0  0  0
   -5.2799   -0.2863   -0.5523 N   0  3  0  0  0  0  0  0  0  0  0  0
   -0.9642    1.0462    0.7777 N   0  0  0  0  0  0  0  0  0  0  0  0
    1.8930    1.2956   -0.3060 N   0  0  0  0  0  0  0  0  0  0  0  0
    4.9368    0.9922   -1.2032 N   0  0  0  0  0  0  0  0  0  0  0  0
    5.2740   -1.7238   -0.6946 N   0  0  0  0  0  0  0  0  0  0  0  0
    6.0295   -3.9642   -0.7113 N   0  0  0  0  0  0  0  0  0  0  0  0
   -6.5715   -0.9733   -0.0634 C   0  0  0  0  0  0  0  0  0  0  0  0
   -5.3011   -0.3995   -2.0905 C   0  0  0  0  0  0  0  0  0  0  0  0
   -4.0546   -0.9886    0.0125 C   0  0  0  0  0  0  0  0  0  0  0  0
   -7.0833   -1.7321   -1.2718 C   0  0  0  0  0  0  0  0  0  0  0  0
   -6.7175   -0.8239   -2.4250 C   0  0  0  0  0  0  0  0  0  0  0  0
   -5.2628    1.1730   -0.1239 C   0  0  0  0  0  0  0  0  0  0  0  0
   -2.8057   -0.1449   -0.0938 C   0  0  0  0  0  0  0  0  0  0  0  0
   -0.6498    1.7454   -0.4530 C   0  0  1  0  0  0  0  0  0  0  0  0
    0.7297    2.0361    0.1802 C   0  0  1  0  0  0  0  0  0  0  0  0
   -2.0628    0.2698    0.9583 C   0  0  0  0  0  0  0  0  0  0  0  0
   -2.4344    0.1291   -1.5489 C   0  0  0  0  0  0  0  0  0  0  0  0
    0.1153    1.4442    1.4828 C   0  0  0  0  0  0  0  0  0  0  0  0
   -2.4216   -0.1603    2.3762 C   0  0  0  0  0  0  0  0  0  0  0  0
    3.1007    1.2721    0.3701 C   0  0  0  0  0  0  0  0  0  0  0  0
    4.1498    0.4447   -0.3266 C   0  0  0  0  0  0  0  0  0  0  0  0
    4.3050   -0.9857   -0.0434 C   0  0  0  0  0  0  0  0  0  0  0  0
    3.5258   -1.6778    0.8599 C   0  0  0  0  0  0  0  0  0  0  0  0
    5.2146   -2.9679   -0.2741 C   0  0  0  0  0  0  0  0  0  0  0  0
    5.5618    2.8733   -2.3370 C   0  0  0  0  0  0  0  0  0  0  0  0
   -7.2812   -0.1944    0.2369 H   0  0  0  0  0  0  0  0  0  0  0  0
   -6.3602   -1.6212    0.7922 H   0  0  0  0  0  0  0  0  0  0  0  0
   -4.6179   -1.1918   -2.4067 H   0  0  0  0  0  0  0  0  0  0  0  0
   -5.0449    0.5582   -2.5508 H   0  0  0  0  0  0  0  0  0  0  0  0
   -4.2845   -1.2117    1.0592 H   0  0  0  0  0  0  0  0  0  0  0  0
   -3.9392   -1.9535   -0.4958 H   0  0  0  0  0  0  0  0  0  0  0  0
   -6.5696   -2.6964   -1.3636 H   0  0  0  0  0  0  0  0  0  0  0  0
   -8.1586   -1.9229   -1.2139 H   0  0  0  0  0  0  0  0  0  0  0  0
   -7.3818    0.0480   -2.4526 H   0  0  0  0  0  0  0  0  0  0  0  0
   -6.7802   -1.3295   -3.3928 H   0  0  0  0  0  0  0  0  0  0  0  0
   -5.2182    1.2125    0.9685 H   0  0  0  0  0  0  0  0  0  0  0  0
   -4.4342    1.7181   -0.5767 H   0  0  0  0  0  0  0  0  0  0  0  0
   -6.1959    1.6331   -0.4667 H   0  0  0  0  0  0  0  0  0  0  0  0
   -1.2663    2.6392   -0.6052 H   0  0  0  0  0  0  0  0  0  0  0  0
    0.9470    3.1078    0.2611 H   0  0  0  0  0  0  0  0  0  0  0  0
   -3.0108    0.9515   -1.9720 H   0  0  0  0  0  0  0  0  0  0  0  0
   -2.5764   -0.7699   -2.1533 H   0  0  0  0  0  0  0  0  0  0  0  0
    1.8284    0.7743   -1.1772 H   0  0  0  0  0  0  0  0  0  0  0  0
    2.7156   -1.3228    1.4813 H   0  0  0  0  0  0  0  0  0  0  0  0
    6.5955    2.7581   -1.9964 H   0  0  0  0  0  0  0  0  0  0  0  0
    5.4217    2.3646   -3.2958 H   0  0  0  0  0  0  0  0  0  0  0  0
    5.3530    3.9379   -2.4709 H   0  0  0  0  0  0  0  0  0  0  0  0
    5.9495   -4.9130   -0.3604 H   0  0  0  0  0  0  0  0  0  0  0  0
    6.7495   -3.7992   -1.4069 H   0  0  0  0  0  0  0  0  0  0  0  0
  1 21  1  0  0  0  0
  1 24  1  0  0  0  0
  2 30  1  0  0  0  0
  2 31  1  0  0  0  0
  3 25  2  0  0  0  0
  4 26  1  0  0  0  0
  5 26  2  0  0  0  0
  6 27  2  0  0  0  0
  7 11  1  0  0  0  0
  7 32  1  0  0  0  0
  8 14  1  0  0  0  0
  8 15  1  0  0  0  0
  8 16  1  0  0  0  0
  8 19  1  0  0  0  0
  9 21  1  0  0  0  0
  9 23  1  0  0  0  0
  9 25  1  0  0  0  0
 10 22  1  0  0  0  0
 10 27  1  0  0  0  0
 10 50  1  0  0  0  0
 11 28  2  0  0  0  0
 12 29  1  0  0  0  0
 12 31  2  0  0  0  0
 13 31  1  0  0  0  0
 13 55  1  0  0  0  0
 13 56  1  0  0  0  0
 14 17  1  0  0  0  0
 14 33  1  0  0  0  0
 14 34  1  0  0  0  0
 15 18  1  0  0  0  0
 15 35  1  0  0  0  0
 15 36  1  0  0  0  0
 16 20  1  0  0  0  0
 16 37  1  0  0  0  0
 16 38  1  0  0  0  0
 17 18  1  0  0  0  0
 17 39  1  0  0  0  0
 17 40  1  0  0  0  0
 18 41  1  0  0  0  0
 18 42  1  0  0  0  0
 19 43  1  0  0  0  0
 19 44  1  0  0  0  0
 19 45  1  0  0  0  0
 20 23  2  0  0  0  0
 20 24  1  0  0  0  0
 21 22  1  0  0  0  0
 21 46  1  6  0  0  0
 22 25  1  0  0  0  0
 22 47  1  1  0  0  0
 23 26  1  0  0  0  0
 24 48  1  0  0  0  0
 24 49  1  0  0  0  0
 27 28  1  0  0  0  0
 28 29  1  0  0  0  0
 29 30  2  0  0  0  0
 30 51  1  0  0  0  0
 32 52  1  0  0  0  0
 32 53  1  0  0  0  0
 32 54  1  0  0  0  0
M  CHG  2   4  -1   8   1
M  END
>  <PUBCHEM_COMPOUND_CID>
5479537

>  <PUBCHEM_CONFORMER_RMSD>
1

>  <PUBCHEM_CONFORMER_DIVERSEORDER>
1
80
88
40
81
79
12
84
73
35
70
33
85
31
63
77
86
42
16
57
44
91
65
46
72
6
69
89
29
74
9
45
55
43
83
17
52
58
51
24
39
8
71
48
50
32
87
34
15
62
66
59
25
54
53
47
18
68
41
30
19
20
11
22
60
82
28
38
5
23
76
75
10
49
64
2
37
21
27
36
78
61
67
26
3
4
56
90
7
14
13

>  <PUBCHEM_MMFF94_PARTIAL_CHARGES>
34
1 -0.45
10 -0.65
11 -0.51
12 -0.57
13 -0.88
14 0.5
15 0.5
16 0.64
19 0.5
2 -0.08
20 -0.28
21 0.44
22 0.28
23 -0.14
24 0.37
25 0.58
26 1.05
27 0.63
28 0.54
29 0.14
3 -0.57
30 -0.11
31 0.46
32 0.28
4 -0.9
5 -0.9
50 0.37
51 0.15
55 0.4
56 0.4
6 -0.57
7 -0.22
8 -1.01
9 -0.39

>  <PUBCHEM_EFFECTIVE_ROTOR_COUNT>
9.6

>  <PUBCHEM_PHARMACOPHORE_FEATURES>
14
1 10 donor
1 11 acceptor
1 13 donor
1 3 acceptor
1 4 acceptor
1 5 acceptor
1 6 acceptor
1 8 cation
3 12 13 31 cation
3 4 5 26 anion
4 9 21 22 25 rings
5 2 12 29 30 31 rings
5 8 14 15 17 18 rings
6 1 9 20 21 23 24 rings

>  <PUBCHEM_HEAVY_ATOM_COUNT>
32

>  <PUBCHEM_ATOM_DEF_STEREO_COUNT>
2

>  <PUBCHEM_ATOM_UDEF_STEREO_COUNT>
0

>  <PUBCHEM_BOND_DEF_STEREO_COUNT>
1

>  <PUBCHEM_BOND_UDEF_STEREO_COUNT>
0

>  <PUBCHEM_ISOTOPIC_ATOM_COUNT>
0

>  <PUBCHEM_COMPONENT_COUNT>
1

>  <PUBCHEM_CACTVS_TAUTO_COUNT>
4

>  <PUBCHEM_CONFORMER_ID>
00539C7100000001

>  <PUBCHEM_MMFF94_ENERGY>
82.9844

>  <PUBCHEM_FEATURE_SELFOVERLAP>
71.364

>  <PUBCHEM_SHAPE_FINGERPRINT>
10319926 262 14979688653836728249
10622 236 18196648497863844962
11135926 11 18191327020984157860
117089 54 17914062988935420094
12166972 35 17274265079634903273
12925494 130 11311240667462901779
13533116 47 18342172280271660526
1361 2 18335976523702042907
1361 4 18200302364245412591
13782708 43 17988629844779627343
13911987 19 17899721208602583564
14068700 675 18267858377274462954
14790565 3 15864890077240847149
14931854 50 17677617449961704730
15183329 4 18113893854083206685
15475509 8 17603863352557820709
16728300 4 17703504390374955063
17349148 13 17274827986574958309
19315092 285 17774997969259820314
19841028 212 18342734083807235942
19958102 18 17240761748822766959
20028762 73 17917146096579810334
21344244 181 18113334219919041131
21641784 216 15430585161564162661
21792934 111 13542475285045724779
23522609 53 18128001700533195337
23559900 14 17168159926852408702
23569943 247 18265048042771095467
24771750 20 16882747792103006757
3004659 81 18409163277858884714
345986 75 17561079189871690960
34797466 226 17531242894117508133
3729539 64 18188483576150696179
3882209 13 16956167307586145418
3886686 26 15837077775438384807
397830 11 10087349097718463101
4015057 19 18261117378415658473
46194498 28 17895187805916733348
474113 269 17560789993182189783
58260988 647 18409167693138058179
59682541 52 18335692862871191877
960060 61 18335421279104112140

>  <PUBCHEM_SHAPE_MULTIPOLES>
607.01
17.43
3.26
2.5
9.04
1.85
1.09
9.07
-10.93
-8.43
-0.87
2.08
-0.46
-1.44

>  <PUBCHEM_SHAPE_SELFOVERLAP>
1262.164

>  <PUBCHEM_SHAPE_VOLUME>
349.4

>  <PUBCHEM_COORDINATE_TYPE>
2
5
10

$$$$
5479529
 OpenBabel10202403123D

 45 47  0  0  1  0  0  0  0  0999 V2000
   -0.7028    1.1939   -1.6963 S   0  0  0  0  0  0  0  0  0  0  0  0
    0.2661    0.0799    2.7120 O   0  0  0  0  0  0  0  0  0  0  0  0
   -5.2666    0.3533   -0.9703 O   0  0  0  0  0  0  0  0  0  0  0  0
   -2.8890   -0.2047    2.9069 O   0  0  0  0  0  0  0  0  0  0  0  0
   -2.7613   -2.1368    1.6900 O   0  0  0  0  0  0  0  0  0  0  0  0
    3.2661    0.8190    1.8701 O   0  0  0  0  0  0  0  0  0  0  0  0
    4.9375   -1.8039   -1.3185 O   0  0  0  0  0  0  0  0  0  0  0  0
    4.7147    2.2778   -0.4803 O   0  0  0  0  0  0  0  0  0  0  0  0
   -6.8707   -1.2836   -1.1880 O   0  0  0  0  0  0  0  0  0  0  0  0
   -1.0940    0.6581    0.8745 N   0  0  0  0  0  0  0  0  0  0  0  0
    1.8251    1.1082    0.0400 N   0  0  0  0  0  0  0  0  0  0  0  0
    4.8913    0.9338   -0.8375 N   0  0  0  0  0  0  0  0  0  0  0  0
   -7.3956    0.9360   -1.4789 N   0  0  0  0  0  0  0  0  0  0  0  0
   -0.6787    1.7563    0.0211 C   0  0  1  0  0  0  0  0  0  0  0  0
    0.6814    1.6810    0.7490 C   0  0  1  0  0  0  0  0  0  0  0  0
   -0.0264    0.6758    1.7018 C   0  0  0  0  0  0  0  0  0  0  0  0
   -2.2487   -0.0357    0.7036 C   0  0  0  0  0  0  0  0  0  0  0  0
   -2.9607    0.0482   -0.4455 C   0  0  0  0  0  0  0  0  0  0  0  0
   -2.4913    0.8318   -1.6693 C   0  0  0  0  0  0  0  0  0  0  0  0
   -4.2912   -0.6257   -0.6806 C   0  0  0  0  0  0  0  0  0  0  0  0
   -2.6566   -0.9314    1.7961 C   0  0  0  0  0  0  0  0  0  0  0  0
    2.9950    0.7396    0.6825 C   0  0  0  0  0  0  0  0  0  0  0  0
    4.0249    0.1648   -0.2514 C   0  0  0  0  0  0  0  0  0  0  0  0
    4.0086   -1.2809   -0.4759 C   0  0  0  0  0  0  0  0  0  0  0  0
   -6.5393   -0.1031   -1.2101 C   0  0  0  0  0  0  0  0  0  0  0  0
    3.1961   -2.2725    0.0228 C   0  0  0  0  0  0  0  0  0  0  0  0
    3.6554   -3.4824   -0.5502 C   0  0  0  0  0  0  0  0  0  0  0  0
    4.7157   -3.1440   -1.3581 C   0  0  0  0  0  0  0  0  0  0  0  0
    5.6950    3.0471   -1.1594 C   0  0  0  0  0  0  0  0  0  0  0  0
   -1.2353    2.6810    0.2145 H   0  0  0  0  0  0  0  0  0  0  0  0
    0.9533    2.6193    1.2471 H   0  0  0  0  0  0  0  0  0  0  0  0
   -2.7000    0.2597   -2.5796 H   0  0  0  0  0  0  0  0  0  0  0  0
   -3.0414    1.7769   -1.7338 H   0  0  0  0  0  0  0  0  0  0  0  0
    1.7740    0.9693   -0.9665 H   0  0  0  0  0  0  0  0  0  0  0  0
   -4.1987   -1.3212   -1.5240 H   0  0  0  0  0  0  0  0  0  0  0  0
   -4.6227   -1.1996    0.1901 H   0  0  0  0  0  0  0  0  0  0  0  0
   -3.1647   -0.7649    3.6635 H   0  0  0  0  0  0  0  0  0  0  0  0
    2.3732   -2.1486    0.7125 H   0  0  0  0  0  0  0  0  0  0  0  0
    3.2624   -4.4766   -0.3939 H   0  0  0  0  0  0  0  0  0  0  0  0
    5.3818   -3.7091   -1.9936 H   0  0  0  0  0  0  0  0  0  0  0  0
   -8.3768    0.7739   -1.6790 H   0  0  0  0  0  0  0  0  0  0  0  0
   -7.0732    1.8979   -1.4857 H   0  0  0  0  0  0  0  0  0  0  0  0
    5.5627    4.0970   -0.8850 H   0  0  0  0  0  0  0  0  0  0  0  0
    5.5726    2.9490   -2.2426 H   0  0  0  0  0  0  0  0  0  0  0  0
    6.6999    2.7304   -0.8632 H   0  0  0  0  0  0  0  0  0  0  0  0
  1 14  1  0  0  0  0
  1 19  1  0  0  0  0
  2 16  2  0  0  0  0
  3 20  1  0  0  0  0
  3 25  1  0  0  0  0
  4 21  1  0  0  0  0
  4 37  1  0  0  0  0
  5 21  2  0  0  0  0
  6 22  2  0  0  0  0
  7 24  1  0  0  0  0
  7 28  1  0  0  0  0
  8 12  1  0  0  0  0
  8 29  1  0  0  0  0
  9 25  2  0  0  0  0
 10 14  1  0  0  0  0
 10 16  1  0  0  0  0
 10 17  1  0  0  0  0
 11 15  1  0  0  0  0
 11 22  1  0  0  0  0
 11 34  1  0  0  0  0
 12 23  2  0  0  0  0
 13 25  1  0  0  0  0
 13 41  1  0  0  0  0
 13 42  1  0  0  0  0
 14 15  1  0  0  0  0
 14 30  1  1  0  0  0
 15 16  1  0  0  0  0
 15 31  1  1  0  0  0
 17 18  2  0  0  0  0
 17 21  1  0  0  0  0
 18 19  1  0  0  0  0
 18 20  1  0  0  0  0
 19 32  1  0  0  0  0
 19 33  1  0  0  0  0
 20 35  1  0  0  0  0
 20 36  1  0  0  0  0
 22 23  1  0  0  0  0
 23 24  1  0  0  0  0
 24 26  2  0  0  0  0
 26 27  1  0  0  0  0
 26 38  1  0  0  0  0
 27 28  2  0  0  0  0
 27 39  1  0  0  0  0
 28 40  1  0  0  0  0
 29 43  1  0  0  0  0
 29 44  1  0  0  0  0
 29 45  1  0  0  0  0
M  END
>  <PUBCHEM_COMPOUND_CID>
5479529

>  <PUBCHEM_CONFORMER_RMSD>
1

>  <PUBCHEM_CONFORMER_DIVERSEORDER>
1
34
29
10
6
28
11
25
33
13
21
19
18
30
32
26
2
31
17
16
3
20
24
27
14
23
22
7
12
8
5
4
9
15

>  <PUBCHEM_MMFF94_PARTIAL_CHARGES>
36
1 -0.45
10 -0.39
11 -0.65
12 -0.51
13 -0.8
14 0.44
15 0.28
16 0.58
17 0.12
18 -0.28
19 0.37
2 -0.57
20 0.42
21 0.71
22 0.63
23 0.53
24 0.05
25 0.78
26 -0.15
27 -0.15
28 -0.01
29 0.28
3 -0.43
34 0.37
37 0.5
38 0.15
39 0.15
4 -0.65
40 0.15
41 0.37
42 0.37
5 -0.57
6 -0.57
7 -0.28
8 -0.22
9 -0.57

>  <PUBCHEM_EFFECTIVE_ROTOR_COUNT>
9.6

>  <PUBCHEM_PHARMACOPHORE_FEATURES>
13
1 11 donor
1 12 acceptor
1 13 donor
1 2 acceptor
1 4 acceptor
1 5 acceptor
1 6 acceptor
1 7 acceptor
1 9 acceptor
3 4 5 21 anion
4 10 14 15 16 rings
5 7 24 26 27 28 rings
6 1 10 14 17 18 19 rings

>  <PUBCHEM_HEAVY_ATOM_COUNT>
29

>  <PUBCHEM_ATOM_DEF_STEREO_COUNT>
2

>  <PUBCHEM_ATOM_UDEF_STEREO_COUNT>
0

>  <PUBCHEM_BOND_DEF_STEREO_COUNT>
1

>  <PUBCHEM_BOND_UDEF_STEREO_COUNT>
0

>  <PUBCHEM_ISOTOPIC_ATOM_COUNT>
0

>  <PUBCHEM_COMPONENT_COUNT>
1

>  <PUBCHEM_CACTVS_TAUTO_COUNT>
4

>  <PUBCHEM_CONFORMER_ID>
00539C6900000001

>  <PUBCHEM_MMFF94_ENERGY>
61.6098

>  <PUBCHEM_FEATURE_SELFOVERLAP>
66.295

>  <PUBCHEM_SHAPE_FINGERPRINT>
10319926 262 13182754601528729719
11135926 11 18269292282365668856
13533116 47 18059852861477422727
13782708 43 17202464750390937823
13911987 19 18122079838812867708
14790565 3 17096910401152887893
15183329 4 18271803502462316973
15475509 8 18114180771063459589
15537594 2 17774998033251683054
17349148 13 16272209699983886733
20645477 70 18411133615670165718
21285901 2 18188198828102288453
21344244 181 18334294241411270747
21641784 216 16154261703364662789
235170 7 18041008353659535646
23557571 272 17241344567537739672
23559900 14 17676784101619620062
3004659 81 18342171120873428230
345986 75 16773792563220483170
3472631 163 16371010745202935148
34797466 226 18114176449888379901
404807 14 17764596413009800503
4093350 32 18335136531040900269
46194498 28 18261105262539542788
58260988 647 18342176618742881199
59682541 52 18341883083381589029
960060 61 18413388735150705340

>  <PUBCHEM_SHAPE_MULTIPOLES>
533.78
15.16
2.98
2.18
14.08
1.49
1.31
2.11
-9.59
-6.54
-1.07
1.59
0.04
1.15

>  <PUBCHEM_SHAPE_SELFOVERLAP>
1124.925

>  <PUBCHEM_SHAPE_VOLUME>
301

>  <PUBCHEM_COORDINATE_TYPE>
2
5
10

$$$$
441199
 OpenBabel10202403123D

 45 47  0  0  1  0  0  0  0  0999 V2000
   -0.5586    0.8986   -2.0988 S   0  0  0  0  0  0  0  0  0  0  0  0
    6.0436   -1.5788   -0.4902 S   0  0  0  0  0  0  0  0  0  0  0  0
    1.3241    3.3320    0.4702 O   0  0  0  0  0  0  0  0  0  0  0  0
    0.9713    0.7594    2.2896 O   0  0  0  0  0  0  0  0  0  0  0  0
   -4.8654   -0.3485   -0.7008 O   0  0  0  0  0  0  0  0  0  0  0  0
   -2.0761    0.1273    2.9040 O   0  0  0  0  0  0  0  0  0  0  0  0
    3.5679    1.1153    0.9287 O   0  0  0  0  0  0  0  0  0  0  0  0
   -1.7889   -1.9676    2.0326 O   0  0  0  0  0  0  0  0  0  0  0  0
   -6.2321   -2.1827   -0.4408 O   0  0  0  0  0  0  0  0  0  0  0  0
   -0.6238    0.8095    0.5539 N   0  0  0  0  0  0  0  0  0  0  0  0
    2.0028    1.3479   -0.7677 N   0  0  0  0  0  0  0  0  0  0  0  0
   -7.0943   -0.1389   -1.0458 N   0  0  0  0  0  0  0  0  0  0  0  0
    0.9670    2.0023    0.0430 C   0  0  2  0  0  0  0  0  0  0  0  0
   -0.4526    1.7713   -0.5197 C   0  0  1  0  0  0  0  0  0  0  0  0
    0.5039    1.1137    1.2326 C   0  0  0  0  0  0  0  0  0  0  0  0
   -1.6782   -0.0412    0.6443 C   0  0  0  0  0  0  0  0  0  0  0  0
   -2.5005   -0.2626   -0.4089 C   0  0  0  0  0  0  0  0  0  0  0  0
   -2.2661    0.3298   -1.7968 C   0  0  0  0  0  0  0  0  0  0  0  0
   -3.7371   -1.1278   -0.3645 C   0  0  0  0  0  0  0  0  0  0  0  0
    3.2287    0.9577   -0.2430 C   0  0  0  0  0  0  0  0  0  0  0  0
   -1.8484   -0.7600    1.9156 C   0  0  0  0  0  0  0  0  0  0  0  0
    1.3280    4.3199   -0.5493 C   0  0  0  0  0  0  0  0  0  0  0  0
    4.1325    0.2877   -1.2584 C   0  0  0  0  0  0  0  0  0  0  0  0
    4.4254   -1.1154   -0.8049 C   0  0  0  0  0  0  0  0  0  0  0  0
    3.5405   -2.1493   -0.5909 C   0  0  0  0  0  0  0  0  0  0  0  0
   -6.0766   -0.9953   -0.7055 C   0  0  0  0  0  0  0  0  0  0  0  0
    4.1998   -3.3375   -0.1627 C   0  0  0  0  0  0  0  0  0  0  0  0
    5.5633   -3.1667   -0.0658 C   0  0  0  0  0  0  0  0  0  0  0  0
   -1.1285    2.6293   -0.4236 H   0  0  0  0  0  0  0  0  0  0  0  0
    1.8295    1.1804   -1.7556 H   0  0  0  0  0  0  0  0  0  0  0  0
   -2.4760   -0.4239   -2.5632 H   0  0  0  0  0  0  0  0  0  0  0  0
   -2.9494    1.1708   -1.9576 H   0  0  0  0  0  0  0  0  0  0  0  0
   -3.6261   -1.9520   -1.0801 H   0  0  0  0  0  0  0  0  0  0  0  0
   -3.8992   -1.5652    0.6253 H   0  0  0  0  0  0  0  0  0  0  0  0
    1.6717    5.2618   -0.1136 H   0  0  0  0  0  0  0  0  0  0  0  0
    0.3200    4.4684   -0.9454 H   0  0  0  0  0  0  0  0  0  0  0  0
    2.0110    4.0403   -1.3564 H   0  0  0  0  0  0  0  0  0  0  0  0
    3.6652    0.2557   -2.2488 H   0  0  0  0  0  0  0  0  0  0  0  0
    5.0394    0.8964   -1.3484 H   0  0  0  0  0  0  0  0  0  0  0  0
   -2.1959   -0.3111    3.7733 H   0  0  0  0  0  0  0  0  0  0  0  0
    2.4708   -2.0626   -0.7340 H   0  0  0  0  0  0  0  0  0  0  0  0
    3.6994   -4.2703    0.0627 H   0  0  0  0  0  0  0  0  0  0  0  0
    6.3002   -3.8984    0.2338 H   0  0  0  0  0  0  0  0  0  0  0  0
   -8.0567   -0.4555   -1.0970 H   0  0  0  0  0  0  0  0  0  0  0  0
   -6.9150    0.8370   -1.2568 H   0  0  0  0  0  0  0  0  0  0  0  0
  1 14  1  0  0  0  0
  1 18  1  0  0  0  0
  2 24  1  0  0  0  0
  2 28  1  0  0  0  0
  3 22  1  0  0  0  0
  4 15  2  0  0  0  0
  5 19  1  0  0  0  0
  5 26  1  0  0  0  0
  6 21  1  0  0  0  0
  6 40  1  0  0  0  0
  7 20  2  0  0  0  0
  8 21  2  0  0  0  0
  9 26  2  0  0  0  0
 10 14  1  0  0  0  0
 10 15  1  0  0  0  0
 10 16  1  0  0  0  0
 11 13  1  0  0  0  0
 11 20  1  0  0  0  0
 11 30  1  0  0  0  0
 12 26  1  0  0  0  0
 12 44  1  0  0  0  0
 12 45  1  0  0  0  0
 13  3  1  1  0  0  0
 13 14  1  0  0  0  0
 13 15  1  0  0  0  0
 14 29  1  1  0  0  0
 16 17  2  0  0  0  0
 16 21  1  0  0  0  0
 17 18  1  0  0  0  0
 17 19  1  0  0  0  0
 18 31  1  0  0  0  0
 18 32  1  0  0  0  0
 19 33  1  0  0  0  0
 19 34  1  0  0  0  0
 20 23  1  0  0  0  0
 22 35  1  0  0  0  0
 22 36  1  0  0  0  0
 22 37  1  0  0  0  0
 23 24  1  0  0  0  0
 23 38  1  0  0  0  0
 23 39  1  0  0  0  0
 24 25  2  0  0  0  0
 25 27  1  0  0  0  0
 25 41  1  0  0  0  0
 27 28  2  0  0  0  0
 27 42  1  0  0  0  0
 28 43  1  0  0  0  0
M  END
>  <PUBCHEM_COMPOUND_CID>
441199

>  <PUBCHEM_CONFORMER_RMSD>
1

>  <PUBCHEM_CONFORMER_DIVERSEORDER>
1
18
29
9
7
39
28
17
20
34
15
21
31
13
4
16
22
3
38
35
26
37
11
30
6
12
33
8
14
36
10
27
25
24
19
32
5
23
2

>  <PUBCHEM_MMFF94_PARTIAL_CHARGES>
35
1 -0.45
10 -0.39
11 -0.65
12 -0.8
13 0.54
14 0.44
15 0.58
16 0.12
17 -0.28
18 0.37
19 0.42
2 -0.08
20 0.57
21 0.71
22 0.28
23 0.24
24 -0.14
25 -0.15
26 0.78
27 -0.15
28 -0.11
3 -0.54
30 0.37
4 -0.57
40 0.5
41 0.15
42 0.15
43 0.15
44 0.37
45 0.37
5 -0.43
6 -0.65
7 -0.57
8 -0.57
9 -0.57

>  <PUBCHEM_EFFECTIVE_ROTOR_COUNT>
9.6

>  <PUBCHEM_PHARMACOPHORE_FEATURES>
12
1 11 donor
1 12 donor
1 3 acceptor
1 4 acceptor
1 6 acceptor
1 7 acceptor
1 8 acceptor
1 9 acceptor
3 6 8 21 anion
4 10 13 14 15 rings
5 2 24 25 27 28 rings
6 1 10 14 16 17 18 rings

>  <PUBCHEM_HEAVY_ATOM_COUNT>
28

>  <PUBCHEM_ATOM_DEF_STEREO_COUNT>
2

>  <PUBCHEM_ATOM_UDEF_STEREO_COUNT>
0

>  <PUBCHEM_BOND_DEF_STEREO_COUNT>
0

>  <PUBCHEM_BOND_UDEF_STEREO_COUNT>
0

>  <PUBCHEM_ISOTOPIC_ATOM_COUNT>
0

>  <PUBCHEM_COMPONENT_COUNT>
1

>  <PUBCHEM_CACTVS_TAUTO_COUNT>
4

>  <PUBCHEM_CONFORMER_ID>
0006BB6F00000001

>  <PUBCHEM_MMFF94_ENERGY>
62.8775

>  <PUBCHEM_FEATURE_SELFOVERLAP>
61.215

>  <PUBCHEM_SHAPE_FINGERPRINT>
11720765 8 18342168999070432841
11796584 16 17560524027137283943
12107183 9 18200041634018425841
12788726 201 17902227811260572328
13004483 165 17060614508158814753
13533116 47 18060136582605861360
13631057 29 18268153064034637206
13911987 19 17973748028071282060
13955234 65 18055913448796740177
14178342 30 14547368391599183313
14705955 166 13254808892843172658
14931854 50 17895762773178884830
15183329 4 18409448064418638215
15475509 8 17676488311749001165
17349148 13 16702034105597549701
1813 80 18130239189641820964
20567600 234 11023818501118545535
20567600 247 18271520996419668703
21285901 2 17967245399326868326
21756936 100 7852986348690929902
23559900 14 18265611155584594005
23569943 247 18262235500569790803
244849 19 18195499610944043885
2838139 119 8430310212837034590
3004659 81 18114180813838870518
345986 75 17489588939607338706
3729539 64 18187081698630161371
404807 14 18053673464617713575
4098825 35 18187644669857472348
437815 12 18335422356924346527
46194498 28 17821727281975258300
463206 1 18408605881282807710
5309563 4 18340486669223238398
563151 40 17460876177560443093
58260988 647 18408890637730310787
59682541 52 18336822095815042301
70251023 43 18409730707373830393

>  <PUBCHEM_SHAPE_MULTIPOLES>
527.9
13.28
3.67
1.9
7.85
1.91
-1.02
-14.17
5.08
-4.06
0.12
1.33
0.09
0.35

>  <PUBCHEM_SHAPE_SELFOVERLAP>
1096.482

>  <PUBCHEM_SHAPE_VOLUME>
301.8

>  <PUBCHEM_COORDINATE_TYPE>
2
5
10

$$$$
53025
 OpenBabel10202403123D

 53 56  0  0  1  0  0  0  0  0999 V2000
   -0.8739    1.1232   -2.2360 S   0  0  0  0  0  0  0  0  0  0  0  0
   -4.4739   -1.4566   -0.3751 S   0  0  0  0  0  0  0  0  0  0  0  0
    3.6249   -1.0131    1.0311 S   0  0  0  0  0  0  0  0  0  0  0  0
    5.1657    0.7941   -0.1054 S   0  0  0  0  0  0  0  0  0  0  0  0
    0.9953    4.0983   -0.3073 O   0  0  0  0  0  0  0  0  0  0  0  0
   -0.1596    2.4704    2.1563 O   0  0  0  0  0  0  0  0  0  0  0  0
   -3.3308    2.4958    2.2366 O   0  0  0  0  0  0  0  0  0  0  0  0
    2.6345    1.9727    1.3861 O   0  0  0  0  0  0  0  0  0  0  0  0
   -3.3220    0.2089    2.2325 O   0  0  0  0  0  0  0  0  0  0  0  0
    6.3503   -4.1537   -0.2476 O   0  0  0  0  0  0  0  0  0  0  0  0
    7.3031   -0.4671   -1.5194 O   0  0  0  0  0  0  0  0  0  0  0  0
    5.1096   -3.4429    1.5147 O   0  0  0  0  0  0  0  0  0  0  0  0
   -1.3992    2.0539    0.1943 N   0  0  0  0  0  0  0  0  0  0  0  0
    1.4656    1.7264   -0.5937 N   0  0  0  0  0  0  0  0  0  0  0  0
   -6.6064   -3.2053   -0.1527 N   0  0  0  0  0  0  0  0  0  0  0  0
   -7.2265   -1.1615   -0.5287 N   0  0  0  0  0  0  0  0  0  0  0  0
   -7.9454   -3.2454   -0.1948 N   0  0  0  0  0  0  0  0  0  0  0  0
   -8.3191   -1.9924   -0.4245 N   0  0  0  0  0  0  0  0  0  0  0  0
    8.4725   -2.0733   -0.3851 N   0  0  0  0  0  0  0  0  0  0  0  0
    0.4588    2.7603   -0.3187 C   0  0  2  0  0  0  0  0  0  0  0  0
   -0.8636    2.5089   -1.0759 C   0  0  1  0  0  0  0  0  0  0  0  0
   -0.3638    2.4523    0.9649 C   0  0  0  0  0  0  0  0  0  0  0  0
   -2.6011    1.4366    0.3291 C   0  0  0  0  0  0  0  0  0  0  0  0
   -3.2624    0.9352   -0.7412 C   0  0  0  0  0  0  0  0  0  0  0  0
   -2.6863    0.9245   -2.1553 C   0  0  0  0  0  0  0  0  0  0  0  0
    2.4880    1.4119    0.2960 C   0  0  0  0  0  0  0  0  0  0  0  0
   -4.6354    0.3096   -0.6848 C   0  0  0  0  0  0  0  0  0  0  0  0
   -3.1208    1.2796    1.6956 C   0  0  0  0  0  0  0  0  0  0  0  0
    1.3655    4.6180   -1.5753 C   0  0  0  0  0  0  0  0  0  0  0  0
    3.4139    0.2965   -0.2226 C   0  0  2  0  0  0  0  0  0  0  0  0
    5.1580   -0.9015    0.2370 C   0  0  0  0  0  0  0  0  0  0  0  0
   -6.1775   -1.9327   -0.3569 C   0  0  0  0  0  0  0  0  0  0  0  0
    6.0908   -1.8317    0.0224 C   0  0  0  0  0  0  0  0  0  0  0  0
    7.3245   -1.3919   -0.7107 C   0  0  0  0  0  0  0  0  0  0  0  0
    5.7955   -3.1994    0.5335 C   0  0  0  0  0  0  0  0  0  0  0  0
   -5.8489   -4.4085    0.0818 C   0  0  0  0  0  0  0  0  0  0  0  0
   -1.3626    3.4151   -1.4391 H   0  0  0  0  0  0  0  0  0  0  0  0
    1.4312    1.2203   -1.4752 H   0  0  0  0  0  0  0  0  0  0  0  0
   -2.9078   -0.0270   -2.6496 H   0  0  0  0  0  0  0  0  0  0  0  0
   -3.1558    1.7209   -2.7433 H   0  0  0  0  0  0  0  0  0  0  0  0
   -5.1745    0.4873   -1.6225 H   0  0  0  0  0  0  0  0  0  0  0  0
   -5.2348    0.7676    0.1100 H   0  0  0  0  0  0  0  0  0  0  0  0
    1.8099    5.6056   -1.4255 H   0  0  0  0  0  0  0  0  0  0  0  0
    0.4882    4.7263   -2.2184 H   0  0  0  0  0  0  0  0  0  0  0  0
    2.1062    3.9729   -2.0566 H   0  0  0  0  0  0  0  0  0  0  0  0
    3.1344   -0.0878   -1.2121 H   0  0  0  0  0  0  0  0  0  0  0  0
   -3.6790    2.4376    3.1519 H   0  0  0  0  0  0  0  0  0  0  0  0
   -5.2619   -4.2777    0.9939 H   0  0  0  0  0  0  0  0  0  0  0  0
   -6.5327   -5.2531    0.2022 H   0  0  0  0  0  0  0  0  0  0  0  0
   -5.1974   -4.5825   -0.7779 H   0  0  0  0  0  0  0  0  0  0  0  0
    9.3578   -1.8394   -0.8222 H   0  0  0  0  0  0  0  0  0  0  0  0
    8.4892   -2.8248    0.2971 H   0  0  0  0  0  0  0  0  0  0  0  0
    6.1473   -5.0575    0.0756 H   0  0  0  0  0  0  0  0  0  0  0  0
  1 21  1  0  0  0  0
  1 25  1  0  0  0  0
  2 27  1  0  0  0  0
  2 32  1  0  0  0  0
  3 30  1  0  0  0  0
  3 31  1  0  0  0  0
  4 30  1  0  0  0  0
  4 31  1  0  0  0  0
  5 29  1  0  0  0  0
  6 22  2  0  0  0  0
  7 28  1  0  0  0  0
  7 47  1  0  0  0  0
  8 26  2  0  0  0  0
  9 28  2  0  0  0  0
 10 35  1  0  0  0  0
 10 53  1  0  0  0  0
 11 34  2  0  0  0  0
 12 35  2  0  0  0  0
 13 21  1  0  0  0  0
 13 22  1  0  0  0  0
 13 23  1  0  0  0  0
 14 20  1  0  0  0  0
 14 26  1  0  0  0  0
 14 38  1  0  0  0  0
 15 17  1  0  0  0  0
 15 32  1  0  0  0  0
 15 36  1  0  0  0  0
 16 18  1  0  0  0  0
 16 32  2  0  0  0  0
 17 18  2  0  0  0  0
 19 34  1  0  0  0  0
 19 51  1  0  0  0  0
 19 52  1  0  0  0  0
 20  5  1  6  0  0  0
 20 21  1  0  0  0  0
 20 22  1  0  0  0  0
 21 37  1  6  0  0  0
 23 24  2  0  0  0  0
 23 28  1  0  0  0  0
 24 25  1  0  0  0  0
 24 27  1  0  0  0  0
 25 39  1  0  0  0  0
 25 40  1  0  0  0  0
 26 30  1  0  0  0  0
 27 41  1  0  0  0  0
 27 42  1  0  0  0  0
 29 43  1  0  0  0  0
 29 44  1  0  0  0  0
 29 45  1  0  0  0  0
 30 46  1  6  0  0  0
 31 33  2  0  0  0  0
 33 34  1  0  0  0  0
 33 35  1  0  0  0  0
 36 48  1  0  0  0  0
 36 49  1  0  0  0  0
 36 50  1  0  0  0  0
M  END
>  <PUBCHEM_COMPOUND_CID>
53025

>  <PUBCHEM_CONFORMER_RMSD>
1.2

>  <PUBCHEM_CONFORMER_DIVERSEORDER>
1
21
16
34
18
33
31
6
38
39
37
14
24
5
19
25
32
28
3
2
13
17
4
26
22
15
36
8
9
12
20
30
29
11
27
7
35
10
23

>  <PUBCHEM_MMFF94_PARTIAL_CHARGES>
40
1 -0.45
10 -0.65
11 -0.57
12 -0.57
13 -0.39
14 -0.65
15 0.31
16 -0.34
17 -0.42
19 -0.8
2 -0.29
20 0.54
21 0.44
22 0.58
23 0.12
24 -0.28
25 0.37
26 0.58
27 0.37
28 0.71
29 0.28
3 -0.29
30 0.49
31 0.11
32 0.24
33 0.06
34 0.62
35 0.71
36 0.26
38 0.37
4 -0.29
47 0.5
5 -0.54
51 0.37
52 0.37
53 0.5
6 -0.57
7 -0.65
8 -0.57
9 -0.57

>  <PUBCHEM_EFFECTIVE_ROTOR_COUNT>
11.2

>  <PUBCHEM_PHARMACOPHORE_FEATURES>
17
1 10 acceptor
1 11 acceptor
1 12 acceptor
1 14 donor
1 19 donor
1 5 acceptor
1 6 acceptor
1 7 acceptor
1 8 acceptor
1 9 acceptor
3 10 12 35 anion
3 15 16 32 cation
3 7 9 28 anion
4 13 20 21 22 rings
4 3 4 30 31 rings
5 15 16 17 18 32 rings
6 1 13 21 23 24 25 rings

>  <PUBCHEM_HEAVY_ATOM_COUNT>
36

>  <PUBCHEM_ATOM_DEF_STEREO_COUNT>
2

>  <PUBCHEM_ATOM_UDEF_STEREO_COUNT>
0

>  <PUBCHEM_BOND_DEF_STEREO_COUNT>
0

>  <PUBCHEM_BOND_UDEF_STEREO_COUNT>
0

>  <PUBCHEM_ISOTOPIC_ATOM_COUNT>
0

>  <PUBCHEM_COMPONENT_COUNT>
1

>  <PUBCHEM_CACTVS_TAUTO_COUNT>
4

>  <PUBCHEM_CONFORMER_ID>
0000CF2100000001

>  <PUBCHEM_MMFF94_ENERGY>
90.5447

>  <PUBCHEM_FEATURE_SELFOVERLAP>
86.653

>  <PUBCHEM_SHAPE_FINGERPRINT>
10533779 1 8646493981340524927
11607047 191 16482764871012341697
117089 54 18412267203305607750
12988421 55 13038903300697250581
131258 38 17769077283432324183
13248334 5 18049723215423261285
13690498 29 18040428872324569869
13782708 43 18337385063322846583
14068700 675 18343304790655301067
14251764 30 18408598167125307727
14340393 91 17894906326529426869
15475509 35 18199180861814991857
16120349 21 18413110555131328893
16728300 4 18201998829087272063
16994733 274 8358260324297145693
19438510 23 8826328480034246881
19841028 212 18410571820683294978
20715895 44 9727639423057300206
208703 8 18273213092910866994
21344244 246 18189057654665152884
21792938 324 10733393392499811476
23522609 53 18054259586637322984
23569914 2 7899233401273095603
24180151 214 17405732731348677505
255183 451 18260545675445742277
2748736 6 9223226338837936454
2838139 119 8285899278087535180
406291 66 18272086132437571063
439807 62 18409728469700877631
4461854 278 17346598608178712990
474113 269 17988350556168357767
484985 159 18265608784994813845
5028188 123 18200610107679702204
5718773 13 18411134744909188163
57527295 17 17386275485456325137
58260988 647 18261674870150968065
6057620 51 18333456431126049766
6691757 9 17772763676071314489
70251023 43 18261387910048287885
7970288 3 18409725149406256078
9831232 110 18189889989018882879
9896288 288 17631462163708704985

>  <PUBCHEM_SHAPE_MULTIPOLES>
674.44
22.24
5.7
1.74
1.22
1.49
-0.34
35.32
3.5
-0.64
0.17
-0.7
-1.28
-1.31

>  <PUBCHEM_SHAPE_SELFOVERLAP>
1391.866

>  <PUBCHEM_SHAPE_VOLUME>
389

>  <PUBCHEM_COORDINATE_TYPE>
2
5
10

$$$$
5742673
 OpenBabel10202403123D

 47 49  0  0  1  0  0  0  0  0999 V2000
   -0.9192    0.7594   -1.9256 S   0  0  0  0  0  0  0  0  0  0  0  0
    3.6489   -3.3993    0.5783 S   0  0  0  0  0  0  0  0  0  0  0  0
   -0.0414    0.9728    2.6348 O   0  0  0  0  0  0  0  0  0  0  0  0
   -5.4499   -0.1403   -1.0739 O   0  0  0  0  0  0  0  0  0  0  0  0
   -3.1799    0.5502    2.8462 O   0  0  0  0  0  0  0  0  0  0  0  0
   -2.9000   -1.6306    2.2171 O   0  0  0  0  0  0  0  0  0  0  0  0
    2.9402    1.6413    1.6721 O   0  0  0  0  0  0  0  0  0  0  0  0
    4.3627    2.5141   -0.9484 O   0  0  0  0  0  0  0  0  0  0  0  0
   -6.9616   -1.8739   -0.8589 O   0  0  0  0  0  0  0  0  0  0  0  0
   -1.3678    0.9313    0.6856 N   0  0  0  0  0  0  0  0  0  0  0  0
    1.5479    1.3204   -0.1903 N   0  0  0  0  0  0  0  0  0  0  0  0
    4.6423    1.1405   -0.9332 N   0  0  0  0  0  0  0  0  0  0  0  0
    4.9796   -1.6156   -0.7373 N   0  0  0  0  0  0  0  0  0  0  0  0
    5.7600   -3.8344   -0.9792 N   0  0  0  0  0  0  0  0  0  0  0  0
   -0.9867    1.7752   -0.4323 C   0  0  1  0  0  0  0  0  0  0  0  0
    0.3494    1.9920    0.3114 C   0  0  1  0  0  0  0  0  0  0  0  0
   -0.3323    1.2460    1.4937 C   0  0  0  0  0  0  0  0  0  0  0  0
   -2.4744    0.1444    0.6943 C   0  0  0  0  0  0  0  0  0  0  0  0
   -3.1498   -0.1389   -0.4449 C   0  0  0  0  0  0  0  0  0  0  0  0
   -2.6839    0.3043   -1.8300 C   0  0  0  0  0  0  0  0  0  0  0  0
   -4.4307   -0.9359   -0.5064 C   0  0  0  0  0  0  0  0  0  0  0  0
   -2.8681   -0.4387    1.9856 C   0  0  0  0  0  0  0  0  0  0  0  0
    2.7135    1.2201    0.5494 C   0  0  0  0  0  0  0  0  0  0  0  0
    3.8112    0.4876   -0.1780 C   0  0  0  0  0  0  0  0  0  0  0  0
    3.9655   -0.9660   -0.0609 C   0  0  0  0  0  0  0  0  0  0  0  0
   -6.6815   -0.7317   -1.1965 C   0  0  0  0  0  0  0  0  0  0  0  0
    3.1423   -1.7656    0.7038 C   0  0  0  0  0  0  0  0  0  0  0  0
   -7.6579    0.2254   -1.8102 C   0  0  0  0  0  0  0  0  0  0  0  0
    4.9095   -2.9018   -0.4744 C   0  0  0  0  0  0  0  0  0  0  0  0
    5.3119    3.1478   -1.7919 C   0  0  0  0  0  0  0  0  0  0  0  0
   -1.6017    2.6793   -0.5135 H   0  0  0  0  0  0  0  0  0  0  0  0
    0.5500    3.0469    0.5335 H   0  0  0  0  0  0  0  0  0  0  0  0
   -3.2845    1.1572   -2.1644 H   0  0  0  0  0  0  0  0  0  0  0  0
   -2.8280   -0.5094   -2.5488 H   0  0  0  0  0  0  0  0  0  0  0  0
    1.5406    0.9084   -1.1204 H   0  0  0  0  0  0  0  0  0  0  0  0
   -4.2695   -1.8301   -1.1213 H   0  0  0  0  0  0  0  0  0  0  0  0
   -4.7589   -1.2669    0.4835 H   0  0  0  0  0  0  0  0  0  0  0  0
   -3.4493    0.2047    3.7239 H   0  0  0  0  0  0  0  0  0  0  0  0
    2.2928   -1.4918    1.3138 H   0  0  0  0  0  0  0  0  0  0  0  0
   -7.7672    1.1038   -1.1693 H   0  0  0  0  0  0  0  0  0  0  0  0
   -8.6329   -0.2613   -1.9051 H   0  0  0  0  0  0  0  0  0  0  0  0
   -7.3147    0.5157   -2.8064 H   0  0  0  0  0  0  0  0  0  0  0  0
    5.0995    4.2200   -1.8082 H   0  0  0  0  0  0  0  0  0  0  0  0
    5.2343    2.7586   -2.8119 H   0  0  0  0  0  0  0  0  0  0  0  0
    6.3249    2.9961   -1.4065 H   0  0  0  0  0  0  0  0  0  0  0  0
    5.6707   -4.8189   -0.7502 H   0  0  0  0  0  0  0  0  0  0  0  0
    6.5185   -3.5831   -1.6045 H   0  0  0  0  0  0  0  0  0  0  0  0
  1 15  1  0  0  0  0
  1 20  1  0  0  0  0
  2 27  1  0  0  0  0
  2 29  1  0  0  0  0
  3 17  2  0  0  0  0
  4 21  1  0  0  0  0
  4 26  1  0  0  0  0
  5 22  1  0  0  0  0
  5 38  1  0  0  0  0
  6 22  2  0  0  0  0
  7 23  2  0  0  0  0
  8 12  1  0  0  0  0
  8 30  1  0  0  0  0
  9 26  2  0  0  0  0
 10 15  1  0  0  0  0
 10 17  1  0  0  0  0
 10 18  1  0  0  0  0
 11 16  1  0  0  0  0
 11 23  1  0  0  0  0
 11 35  1  0  0  0  0
 12 24  2  0  0  0  0
 13 25  1  0  0  0  0
 13 29  2  0  0  0  0
 14 29  1  0  0  0  0
 14 46  1  0  0  0  0
 14 47  1  0  0  0  0
 15 16  1  0  0  0  0
 15 31  1  6  0  0  0
 16 17  1  0  0  0  0
 16 32  1  1  0  0  0
 18 19  2  0  0  0  0
 18 22  1  0  0  0  0
 19 20  1  0  0  0  0
 19 21  1  0  0  0  0
 20 33  1  0  0  0  0
 20 34  1  0  0  0  0
 21 36  1  0  0  0  0
 21 37  1  0  0  0  0
 23 24  1  0  0  0  0
 24 25  1  0  0  0  0
 25 27  2  0  0  0  0
 26 28  1  0  0  0  0
 27 39  1  0  0  0  0
 28 40  1  0  0  0  0
 28 41  1  0  0  0  0
 28 42  1  0  0  0  0
 30 43  1  0  0  0  0
 30 44  1  0  0  0  0
 30 45  1  0  0  0  0
M  END
>  <PUBCHEM_COMPOUND_CID>
5742673

>  <PUBCHEM_CONFORMER_RMSD>
1

>  <PUBCHEM_CONFORMER_DIVERSEORDER>
1
42
22
37
24
26
18
23
12
14
21
28
6
35
40
4
20
43
38
19
29
25
30
11
33
3
41
34
31
9
39
15
32
17
27
7
5
36
2
13
8
10
16

>  <PUBCHEM_MMFF94_PARTIAL_CHARGES>
35
1 -0.45
10 -0.39
11 -0.65
12 -0.51
13 -0.57
14 -0.88
15 0.44
16 0.28
17 0.58
18 0.12
19 -0.28
2 -0.08
20 0.37
21 0.42
22 0.71
23 0.63
24 0.54
25 0.14
26 0.66
27 -0.11
28 0.06
29 0.46
3 -0.57
30 0.28
35 0.37
38 0.5
39 0.15
4 -0.43
46 0.4
47 0.4
5 -0.65
6 -0.57
7 -0.57
8 -0.22
9 -0.57

>  <PUBCHEM_EFFECTIVE_ROTOR_COUNT>
9.6

>  <PUBCHEM_PHARMACOPHORE_FEATURES>
13
1 11 donor
1 12 acceptor
1 14 donor
1 3 acceptor
1 5 acceptor
1 6 acceptor
1 7 acceptor
1 9 acceptor
3 13 14 29 cation
3 5 6 22 anion
4 10 15 16 17 rings
5 2 13 25 27 29 rings
6 1 10 15 18 19 20 rings

>  <PUBCHEM_HEAVY_ATOM_COUNT>
30

>  <PUBCHEM_ATOM_DEF_STEREO_COUNT>
2

>  <PUBCHEM_ATOM_UDEF_STEREO_COUNT>
0

>  <PUBCHEM_BOND_DEF_STEREO_COUNT>
1

>  <PUBCHEM_BOND_UDEF_STEREO_COUNT>
0

>  <PUBCHEM_ISOTOPIC_ATOM_COUNT>
0

>  <PUBCHEM_COMPONENT_COUNT>
1

>  <PUBCHEM_CACTVS_TAUTO_COUNT>
4

>  <PUBCHEM_CONFORMER_ID>
0057A05100000001

>  <PUBCHEM_MMFF94_ENERGY>
64.1971

>  <PUBCHEM_FEATURE_SELFOVERLAP>
66.288

>  <PUBCHEM_SHAPE_FINGERPRINT>
10319926 262 14548471192966114331
11135926 11 18265351645555834320
117089 54 17843411670142804254
11796584 16 17488455450962743631
13533116 47 18343578560012406439
13782708 43 17774141518948617711
13911987 19 17973463258649043716
14790565 3 16444445929143890877
15183329 4 18412538813369465733
15475509 8 17749384816142745653
19841028 212 18271801289974644950
21344244 181 18187080655317008115
21641784 216 15430584053610228453
22849339 104 16732994145464964251
235170 7 17603875524315464044
23559900 14 17313398815695781262
3004659 81 18410285878946026894
345986 75 17346594162317056099
3472631 163 12829500224402232226
34797466 226 17749102322794523085
3886686 26 15765583135828187159
397830 11 9294997034120240021
404807 14 17832424198753336311
4093350 32 18114459067157885045
46194498 28 18040989653150617252
474113 269 17203035289261453295
58260988 647 18410855447971604579
59682541 52 18337942463851577661
70251023 43 18338793404051866602
7970288 3 18057883554896675854

>  <PUBCHEM_SHAPE_MULTIPOLES>
559.09
16.22
3.42
2.23
15.92
1.6
1.21
7.71
-10.13
-8.37
-0.97
2
-0.41
-0.14

>  <PUBCHEM_SHAPE_SELFOVERLAP>
1159.467

>  <PUBCHEM_SHAPE_VOLUME>
321

>  <PUBCHEM_COORDINATE_TYPE>
2
5
10

$$$$
