36294
 OpenBabel12232409013D

 69 71  0  0  1  0  0  0  0  0999 V2000
   -1.2780    0.8560    0.4184 O   0  0  0  0  0  0  0  0  0  0  0  0
    1.3281    0.2231   -0.5590 O   0  0  0  0  0  0  0  0  0  0  0  0
    0.0859    3.4021   -1.8079 O   0  0  0  0  0  0  0  0  0  0  0  0
   -3.5805    0.5749   -0.0639 O   0  0  0  0  0  0  0  0  0  0  0  0
    3.4581   -0.6662   -1.0818 O   0  0  0  0  0  0  0  0  0  0  0  0
   -1.6948   -0.0750    2.9969 O   0  0  0  0  0  0  0  0  0  0  0  0
   -3.1878   -3.0625   -0.4942 O   0  0  0  0  0  0  0  0  0  0  0  0
    3.1270   -3.4409    1.3095 O   0  0  0  0  0  0  0  0  0  0  0  0
   -4.3429    0.4205   -2.6781 O   0  0  0  0  0  0  0  0  0  0  0  0
   -0.3178    4.3683    1.0215 N   0  0  0  0  0  0  0  0  0  0  0  0
    2.4682    3.6946   -0.0203 N   0  0  0  0  0  0  0  0  0  0  0  0
    0.0806   -1.8346   -2.1171 N   0  0  0  0  0  0  0  0  0  0  0  0
   -2.7581   -2.7574    2.3582 N   0  0  0  0  0  0  0  0  0  0  0  0
    5.6353   -0.0434    0.5943 N   0  0  0  0  0  0  0  0  0  0  0  0
   -0.9413    2.1904    0.0321 C   0  0  2  0  0  0  0  0  0  0  0  0
    1.4012    1.6212   -0.8467 C   0  0  1  0  0  0  0  0  0  0  0  0
   -0.0113    2.1218   -1.1918 C   0  0  2  0  0  0  0  0  0  0  0  0
   -0.3252    2.9211    1.2404 C   0  0  1  0  0  0  0  0  0  0  0  0
    2.0418    2.3457    0.3527 C   0  0  2  0  0  0  0  0  0  0  0  0
    1.0834    2.3833    1.5570 C   0  0  0  0  0  0  0  0  0  0  0  0
   -2.5997    0.7908    0.9511 C   0  0  1  0  0  0  0  0  0  0  0  0
    2.0923   -0.5365   -1.4931 C   0  0  1  0  0  0  0  0  0  0  0  0
   -2.6930   -0.3100    2.0099 C   0  0  1  0  0  0  0  0  0  0  0  0
    1.4766   -1.9276   -1.6992 C   0  0  1  0  0  0  0  0  0  0  0  0
   -2.5221   -1.6955    1.3730 C   0  0  2  0  0  0  0  0  0  0  0  0
   -3.5029   -1.8579    0.1998 C   0  0  1  0  0  0  0  0  0  0  0  0
   -3.4114   -0.6632   -0.7631 C   0  0  1  0  0  0  0  0  0  0  0  0
    1.5942   -2.7610   -0.4229 C   0  0  0  0  0  0  0  0  0  0  0  0
    3.0495   -2.7955    0.0445 C   0  0  1  0  0  0  0  0  0  0  0  0
    3.6207   -1.3769    0.1508 C   0  0  1  0  0  0  0  0  0  0  0  0
   -4.4884   -0.7139   -1.8438 C   0  0  0  0  0  0  0  0  0  0  0  0
    5.1122   -1.3959    0.4728 C   0  0  0  0  0  0  0  0  0  0  0  0
   -1.8522    2.7177   -0.2878 H   0  0  0  0  0  0  0  0  0  0  0  0
    2.0522    1.8062   -1.7130 H   0  0  0  0  0  0  0  0  0  0  0  0
   -0.4597    1.4385   -1.9243 H   0  0  0  0  0  0  0  0  0  0  0  0
   -0.9378    2.7391    2.1311 H   0  0  0  0  0  0  0  0  0  0  0  0
    2.9360    1.7920    0.6641 H   0  0  0  0  0  0  0  0  0  0  0  0
    1.5309    2.9612    2.3768 H   0  0  0  0  0  0  0  0  0  0  0  0
    0.9810    1.3606    1.9454 H   0  0  0  0  0  0  0  0  0  0  0  0
   -2.8535    1.7363    1.4465 H   0  0  0  0  0  0  0  0  0  0  0  0
    2.0978   -0.0502   -2.4776 H   0  0  0  0  0  0  0  0  0  0  0  0
   -3.6761   -0.2597    2.4964 H   0  0  0  0  0  0  0  0  0  0  0  0
    2.0432   -2.4419   -2.4866 H   0  0  0  0  0  0  0  0  0  0  0  0
   -1.4894   -1.8182    1.0224 H   0  0  0  0  0  0  0  0  0  0  0  0
   -4.5276   -1.9424    0.5838 H   0  0  0  0  0  0  0  0  0  0  0  0
   -2.4381   -0.6444   -1.2684 H   0  0  0  0  0  0  0  0  0  0  0  0
    1.2358   -3.7849   -0.5894 H   0  0  0  0  0  0  0  0  0  0  0  0
    0.9609   -2.3515    0.3758 H   0  0  0  0  0  0  0  0  0  0  0  0
   -1.2733    4.7026    0.9034 H   0  0  0  0  0  0  0  0  0  0  0  0
    0.0529    4.8382    1.8463 H   0  0  0  0  0  0  0  0  0  0  0  0
    3.1618    3.6426   -0.7652 H   0  0  0  0  0  0  0  0  0  0  0  0
    2.9288    4.1405    0.7718 H   0  0  0  0  0  0  0  0  0  0  0  0
    3.6392   -3.3780   -0.6743 H   0  0  0  0  0  0  0  0  0  0  0  0
    3.1064   -0.8313    0.9541 H   0  0  0  0  0  0  0  0  0  0  0  0
    0.6235    3.3032   -2.6120 H   0  0  0  0  0  0  0  0  0  0  0  0
   -5.4885   -0.6751   -1.3991 H   0  0  0  0  0  0  0  0  0  0  0  0
   -4.3987   -1.6171   -2.4549 H   0  0  0  0  0  0  0  0  0  0  0  0
    5.6629   -1.9055   -0.3264 H   0  0  0  0  0  0  0  0  0  0  0  0
    5.3005   -1.9338    1.4075 H   0  0  0  0  0  0  0  0  0  0  0  0
   -0.2862   -2.7668   -2.3038 H   0  0  0  0  0  0  0  0  0  0  0  0
    0.0172   -1.3174   -2.9928 H   0  0  0  0  0  0  0  0  0  0  0  0
   -2.5944   -3.6656    1.9255 H   0  0  0  0  0  0  0  0  0  0  0  0
   -2.0840   -2.6720    3.1178 H   0  0  0  0  0  0  0  0  0  0  0  0
   -1.8657    0.7995    3.3860 H   0  0  0  0  0  0  0  0  0  0  0  0
   -2.2861   -2.9773   -0.8483 H   0  0  0  0  0  0  0  0  0  0  0  0
    2.7573   -4.3343    1.2061 H   0  0  0  0  0  0  0  0  0  0  0  0
    6.6445   -0.0800    0.7310 H   0  0  0  0  0  0  0  0  0  0  0  0
    5.4812    0.4643   -0.2759 H   0  0  0  0  0  0  0  0  0  0  0  0
   -5.0385    0.3697   -3.3556 H   0  0  0  0  0  0  0  0  0  0  0  0
  1 15  1  0  0  0  0
  1 21  1  0  0  0  0
  2 16  1  0  0  0  0
  2 22  1  0  0  0  0
  3 17  1  0  0  0  0
  3 55  1  0  0  0  0
  4 21  1  0  0  0  0
  4 27  1  0  0  0  0
  5 22  1  0  0  0  0
  5 30  1  0  0  0  0
  6 23  1  0  0  0  0
  6 64  1  0  0  0  0
  7 26  1  0  0  0  0
  7 65  1  0  0  0  0
  8 29  1  0  0  0  0
  8 66  1  0  0  0  0
  9 31  1  0  0  0  0
  9 69  1  0  0  0  0
 10 18  1  0  0  0  0
 10 49  1  0  0  0  0
 10 50  1  0  0  0  0
 11 19  1  0  0  0  0
 11 51  1  0  0  0  0
 11 52  1  0  0  0  0
 12 24  1  0  0  0  0
 12 60  1  0  0  0  0
 12 61  1  0  0  0  0
 13 25  1  0  0  0  0
 13 62  1  0  0  0  0
 13 63  1  0  0  0  0
 14 32  1  0  0  0  0
 14 67  1  0  0  0  0
 14 68  1  0  0  0  0
 15 17  1  0  0  0  0
 15 18  1  0  0  0  0
 15 33  1  6  0  0  0
 16 17  1  0  0  0  0
 16 19  1  0  0  0  0
 16 34  1  6  0  0  0
 17 35  1  6  0  0  0
 18 20  1  0  0  0  0
 18 36  1  1  0  0  0
 19 20  1  0  0  0  0
 19 37  1  1  0  0  0
 20 38  1  0  0  0  0
 20 39  1  0  0  0  0
 21 23  1  0  0  0  0
 21 40  1  1  0  0  0
 22 24  1  0  0  0  0
 22 41  1  6  0  0  0
 23 25  1  0  0  0  0
 23 42  1  1  0  0  0
 24 28  1  0  0  0  0
 24 43  1  6  0  0  0
 25 26  1  0  0  0  0
 25 44  1  6  0  0  0
 26 27  1  0  0  0  0
 26 45  1  1  0  0  0
 27 31  1  0  0  0  0
 27 46  1  6  0  0  0
 28 29  1  0  0  0  0
 28 47  1  0  0  0  0
 28 48  1  0  0  0  0
 29 30  1  0  0  0  0
 29 53  1  6  0  0  0
 30 32  1  0  0  0  0
 30 54  1  1  0  0  0
 31 56  1  0  0  0  0
 31 57  1  0  0  0  0
 32 58  1  0  0  0  0
 32 59  1  0  0  0  0
M  END
>  <PUBCHEM_COMPOUND_CID>
36294

>  <PUBCHEM_CONFORMER_RMSD>
1

>  <PUBCHEM_CONFORMER_DIVERSEORDER>
1
104
73
70
23
65
66
79
54
31
68
72
49
82
91
27
46
87
48
74
19
62
105
32
58
53
3
100
89
37
28
94
36
88
86
4
39
41
80
84
101
63
47
20
6
96
76
102
90
64
57
11
75
22
25
35
81
12
92
95
13
56
98
29
45
42
52
7
97
55
9
77
2
59
5
24
67
83
26
103
78
33
30
14
44
16
71
61
69
17
8
60
93
99
10
18
51
15
38
43
34
40
50
21
85
106

>  <PUBCHEM_MMFF94_PARTIAL_CHARGES>
45
1 -0.56
10 -0.99
11 -0.99
12 -0.99
13 -0.99
14 -0.99
15 0.28
16 0.28
17 0.28
18 0.27
19 0.27
2 -0.56
21 0.56
22 0.56
23 0.28
24 0.27
25 0.27
26 0.28
27 0.28
29 0.28
3 -0.68
30 0.28
31 0.28
32 0.27
4 -0.56
49 0.36
5 -0.56
50 0.36
51 0.36
52 0.36
55 0.4
6 -0.68
60 0.36
61 0.36
62 0.36
63 0.36
64 0.4
65 0.4
66 0.4
67 0.36
68 0.36
69 0.4
7 -0.68
8 -0.68
9 -0.68

>  <PUBCHEM_EFFECTIVE_ROTOR_COUNT>
9.6

>  <PUBCHEM_PHARMACOPHORE_FEATURES>
27
1 1 acceptor
1 10 cation
1 10 donor
1 11 cation
1 11 donor
1 12 cation
1 12 donor
1 13 cation
1 13 donor
1 14 cation
1 14 donor
1 2 acceptor
1 3 acceptor
1 3 donor
1 4 acceptor
1 5 acceptor
1 6 acceptor
1 6 donor
1 7 acceptor
1 7 donor
1 8 acceptor
1 8 donor
1 9 acceptor
1 9 donor
6 15 16 17 18 19 20 rings
6 4 21 23 25 26 27 rings
6 5 22 24 28 29 30 rings

>  <PUBCHEM_HEAVY_ATOM_COUNT>
32

>  <PUBCHEM_ATOM_DEF_STEREO_COUNT>
14

>  <PUBCHEM_ATOM_UDEF_STEREO_COUNT>
0

>  <PUBCHEM_BOND_DEF_STEREO_COUNT>
0

>  <PUBCHEM_BOND_UDEF_STEREO_COUNT>
0

>  <PUBCHEM_ISOTOPIC_ATOM_COUNT>
0

>  <PUBCHEM_COMPONENT_COUNT>
1

>  <PUBCHEM_CACTVS_TAUTO_COUNT>
1

>  <PUBCHEM_CONFORMER_ID>
00008DC600000001

>  <PUBCHEM_MMFF94_ENERGY>
64.2958

>  <PUBCHEM_FEATURE_SELFOVERLAP>
137.139

>  <PUBCHEM_SHAPE_FINGERPRINT>
11007060 377 17626676251708249296
12156800 1 17253941465961342147
12160290 23 17689457995605803580
12553582 1 18197801949600223951
12788726 201 18053958250902932865
13140716 1 18339379537853701488
133893 2 18266757937532551145
14081887 123 18198627631720500090
14787075 74 18409172121602534214
20600515 1 18115886112811792772
21421861 104 18124349114083245440
23419403 2 17054094331391800529
23559900 14 18263351628934884645
238 59 18056473091925491237
3027735 51 17465657888872418887
3459 83 11891599210129594264
35225 105 17397267131437036666
392239 28 18413110537909314234
463206 1 18340211915590745019
469060 322 17200193051139493958
513532 50 17613384071161141869
550186 7 16013825781384600348

>  <PUBCHEM_SHAPE_MULTIPOLES>
580.82
8.19
4.85
2.26
2.59
2.72
0.17
-5.91
-0.34
1.76
0.78
-2.11
-0.4
0.15

>  <PUBCHEM_SHAPE_SELFOVERLAP>
1191.279

>  <PUBCHEM_SHAPE_VOLUME>
328.6

>  <PUBCHEM_COORDINATE_TYPE>
2
5
10

$$$$
19649
 OpenBabel12232409013D

 79 81  0  0  1  0  0  0  0  0999 V2000
    0.3936    0.5863    0.2147 O   0  0  0  0  0  0  0  0  0  0  0  0
   -0.0684    2.7985   -0.4828 O   0  0  0  0  0  0  0  0  0  0  0  0
   -2.6273    0.3073   -0.4097 O   0  0  0  0  0  0  0  0  0  0  0  0
   -2.9852   -0.5281    1.7760 O   0  0  0  0  0  0  0  0  0  0  0  0
   -2.8953    2.7651   -1.5952 O   0  0  0  0  0  0  0  0  0  0  0  0
    2.2914    2.5544    1.0529 O   0  0  0  0  0  0  0  0  0  0  0  0
    3.9781   -2.1693   -1.4066 O   0  0  0  0  0  0  0  0  0  0  0  0
    4.8994    1.5039    1.5227 O   0  0  0  0  0  0  0  0  0  0  0  0
   -4.5021   -3.7166   -0.3711 O   0  0  0  0  0  0  0  0  0  0  0  0
   -2.0013   -3.9859    0.9775 O   0  0  0  0  0  0  0  0  0  0  0  0
   -4.6769    3.4286    0.2550 O   0  0  0  0  0  0  0  0  0  0  0  0
   -0.7972   -0.6993    3.4177 O   0  0  0  0  0  0  0  0  0  0  0  0
    1.3323   -1.0970   -1.9497 N   0  0  0  0  0  0  0  0  0  0  0  0
    5.9008   -0.1611   -0.6418 N   0  0  0  0  0  0  0  0  0  0  0  0
   -5.0357   -0.9609   -1.2974 N   0  0  0  0  0  0  0  0  0  0  0  0
    0.4382   -2.9783   -0.7533 N   0  0  0  0  0  0  0  0  0  0  0  0
   -0.2080   -2.5357   -2.8938 N   0  0  0  0  0  0  0  0  0  0  0  0
    6.8030   -0.5724    1.5462 N   0  0  0  0  0  0  0  0  0  0  0  0
    8.1743   -0.2516   -0.2459 N   0  0  0  0  0  0  0  0  0  0  0  0
   -1.8682    1.3835    0.1096 C   0  0  2  0  0  0  0  0  0  0  0  0
    1.7245    0.6485   -0.3060 C   0  0  2  0  0  0  0  0  0  0  0  0
   -2.4313    2.7430   -0.2590 C   0  0  1  0  0  0  0  0  0  0  0  0
   -0.4854    1.4254   -0.5202 C   0  0  2  0  0  0  0  0  0  0  0  0
    2.1447   -0.7465   -0.7712 C   0  0  2  0  0  0  0  0  0  0  0  0
    2.6491    1.1951    0.7832 C   0  0  1  0  0  0  0  0  0  0  0  0
    3.6194   -0.8039   -1.1786 C   0  0  1  0  0  0  0  0  0  0  0  0
   -1.1899    3.6182   -0.0926 C   0  0  2  0  0  0  0  0  0  0  0  0
    4.1222    1.1431    0.3777 C   0  0  2  0  0  0  0  0  0  0  0  0
    4.5389   -0.2534   -0.0863 C   0  0  2  0  0  0  0  0  0  0  0  0
   -3.5901   -0.1630    0.5319 C   0  0  2  0  0  0  0  0  0  0  0  0
   -4.4460   -1.3187   -0.0072 C   0  0  2  0  0  0  0  0  0  0  0  0
   -3.6294   -2.6132   -0.1185 C   0  0  1  0  0  0  0  0  0  0  0  0
   -2.8939   -2.8955    1.1965 C   0  0  2  0  0  0  0  0  0  0  0  0
   -2.1188   -1.6623    1.6757 C   0  0  2  0  0  0  0  0  0  0  0  0
   -1.1724    4.8945   -0.9184 C   0  0  0  0  0  0  0  0  0  0  0  0
   -3.5405    3.1846    0.6470 C   0  0  0  0  0  0  0  0  0  0  0  0
   -1.5003   -1.8734    3.0551 C   0  0  0  0  0  0  0  0  0  0  0  0
    0.5806   -2.1422   -1.8384 C   0  0  0  0  0  0  0  0  0  0  0  0
   -5.7999    0.2717   -1.1896 C   0  0  0  0  0  0  0  0  0  0  0  0
    6.8734   -0.3229    0.1937 C   0  0  0  0  0  0  0  0  0  0  0  0
   -1.7405    1.3096    1.1979 H   0  0  0  0  0  0  0  0  0  0  0  0
    1.7715    1.3261   -1.1717 H   0  0  0  0  0  0  0  0  0  0  0  0
   -0.5200    1.0944   -1.5660 H   0  0  0  0  0  0  0  0  0  0  0  0
    2.0147   -1.4221    0.0762 H   0  0  0  0  0  0  0  0  0  0  0  0
    2.4839    0.6533    1.7225 H   0  0  0  0  0  0  0  0  0  0  0  0
    3.7821   -0.2608   -2.1187 H   0  0  0  0  0  0  0  0  0  0  0  0
   -1.0322    3.8757    0.9626 H   0  0  0  0  0  0  0  0  0  0  0  0
    4.3341    1.8927   -0.3943 H   0  0  0  0  0  0  0  0  0  0  0  0
    4.4990   -0.9660    0.7469 H   0  0  0  0  0  0  0  0  0  0  0  0
   -4.2535    0.6661    0.7928 H   0  0  0  0  0  0  0  0  0  0  0  0
   -5.2578   -1.5154    0.7085 H   0  0  0  0  0  0  0  0  0  0  0  0
   -2.9094   -2.5667   -0.9455 H   0  0  0  0  0  0  0  0  0  0  0  0
   -3.6252   -3.2104    1.9521 H   0  0  0  0  0  0  0  0  0  0  0  0
   -1.3084   -1.4283    0.9757 H   0  0  0  0  0  0  0  0  0  0  0  0
   -0.2535    5.4573   -0.7205 H   0  0  0  0  0  0  0  0  0  0  0  0
   -1.1724    4.6775   -1.9919 H   0  0  0  0  0  0  0  0  0  0  0  0
   -2.0286    5.5333   -0.6831 H   0  0  0  0  0  0  0  0  0  0  0  0
   -3.2901    3.2679    1.7188 H   0  0  0  0  0  0  0  0  0  0  0  0
   -3.4128    1.9593   -1.7525 H   0  0  0  0  0  0  0  0  0  0  0  0
    2.4047    3.0626    0.2316 H   0  0  0  0  0  0  0  0  0  0  0  0
   -5.6550   -1.7105   -1.6032 H   0  0  0  0  0  0  0  0  0  0  0  0
    3.4049   -2.5056   -2.1164 H   0  0  0  0  0  0  0  0  0  0  0  0
    4.6345    0.9309    2.2620 H   0  0  0  0  0  0  0  0  0  0  0  0
   -2.2739   -2.0385    3.8116 H   0  0  0  0  0  0  0  0  0  0  0  0
   -0.8017   -2.7144    3.0744 H   0  0  0  0  0  0  0  0  0  0  0  0
   -4.8960   -3.5828   -1.2494 H   0  0  0  0  0  0  0  0  0  0  0  0
   -1.6822   -4.2877    1.8443 H   0  0  0  0  0  0  0  0  0  0  0  0
   -6.3822    0.4010   -2.1087 H   0  0  0  0  0  0  0  0  0  0  0  0
   -5.1777    1.1607   -1.1068 H   0  0  0  0  0  0  0  0  0  0  0  0
   -6.5157    0.2439   -0.3609 H   0  0  0  0  0  0  0  0  0  0  0  0
   -0.0954   -0.5588    2.7592 H   0  0  0  0  0  0  0  0  0  0  0  0
   -0.2026   -3.7640   -0.8030 H   0  0  0  0  0  0  0  0  0  0  0  0
    0.9195   -2.8734    0.1296 H   0  0  0  0  0  0  0  0  0  0  0  0
   -0.2126   -2.0172   -3.7654 H   0  0  0  0  0  0  0  0  0  0  0  0
   -0.8112   -3.3485   -2.8315 H   0  0  0  0  0  0  0  0  0  0  0  0
    5.9334   -0.6565    2.0568 H   0  0  0  0  0  0  0  0  0  0  0  0
    7.6508   -0.6799    2.0933 H   0  0  0  0  0  0  0  0  0  0  0  0
    8.9561   -0.3740    0.3882 H   0  0  0  0  0  0  0  0  0  0  0  0
    8.3883   -0.0725   -1.2210 H   0  0  0  0  0  0  0  0  0  0  0  0
  1 21  1  0  0  0  0
  1 23  1  0  0  0  0
  2 23  1  0  0  0  0
  2 27  1  0  0  0  0
  3 20  1  0  0  0  0
  3 30  1  0  0  0  0
  4 30  1  0  0  0  0
  4 34  1  0  0  0  0
  5 59  1  0  0  0  0
  6 25  1  0  0  0  0
  6 60  1  0  0  0  0
  7 26  1  0  0  0  0
  7 62  1  0  0  0  0
  8 28  1  0  0  0  0
  8 63  1  0  0  0  0
  9 32  1  0  0  0  0
  9 66  1  0  0  0  0
 10 33  1  0  0  0  0
 10 67  1  0  0  0  0
 11 36  2  0  0  0  0
 12 37  1  0  0  0  0
 12 71  1  0  0  0  0
 13 24  1  0  0  0  0
 13 38  2  0  0  0  0
 14 29  1  0  0  0  0
 14 40  2  0  0  0  0
 15 31  1  0  0  0  0
 15 39  1  0  0  0  0
 15 61  1  0  0  0  0
 16 38  1  0  0  0  0
 16 72  1  0  0  0  0
 16 73  1  0  0  0  0
 17 38  1  0  0  0  0
 17 74  1  0  0  0  0
 17 75  1  0  0  0  0
 18 40  1  0  0  0  0
 18 76  1  0  0  0  0
 18 77  1  0  0  0  0
 19 40  1  0  0  0  0
 19 78  1  0  0  0  0
 19 79  1  0  0  0  0
 20 22  1  0  0  0  0
 20 23  1  0  0  0  0
 20 41  1  1  0  0  0
 21 24  1  0  0  0  0
 21 25  1  0  0  0  0
 21 42  1  6  0  0  0
 22  5  1  6  0  0  0
 22 27  1  0  0  0  0
 22 36  1  0  0  0  0
 23 43  1  6  0  0  0
 24 26  1  0  0  0  0
 24 44  1  1  0  0  0
 25 28  1  0  0  0  0
 25 45  1  1  0  0  0
 26 29  1  0  0  0  0
 26 46  1  6  0  0  0
 27 35  1  0  0  0  0
 27 47  1  1  0  0  0
 28 29  1  0  0  0  0
 28 48  1  6  0  0  0
 29 49  1  1  0  0  0
 30 31  1  0  0  0  0
 30 50  1  1  0  0  0
 31 32  1  0  0  0  0
 31 51  1  1  0  0  0
 32 33  1  0  0  0  0
 32 52  1  6  0  0  0
 33 34  1  0  0  0  0
 33 53  1  1  0  0  0
 34 37  1  0  0  0  0
 34 54  1  6  0  0  0
 35 55  1  0  0  0  0
 35 56  1  0  0  0  0
 35 57  1  0  0  0  0
 36 58  1  0  0  0  0
 37 64  1  0  0  0  0
 37 65  1  0  0  0  0
 39 68  1  0  0  0  0
 39 69  1  0  0  0  0
 39 70  1  0  0  0  0
M  END
>  <PUBCHEM_COMPOUND_CID>
19649

>  <PUBCHEM_CONFORMER_RMSD>
1.2

>  <PUBCHEM_CONFORMER_DIVERSEORDER>
3
25
54
29
12
50
41
13
58
52
45
38
61
44
39
57
59
34
42
27
40
10
17
32
51
24
47
31
11
18
15
46
7
48
60
9
35
20
37
8
19
53
30
62
43
36
23
55
4
5
56
14
22
26
16
49
21
1
28
33
2
6

>  <PUBCHEM_MMFF94_PARTIAL_CHARGES>
56
1 -0.56
10 -0.68
11 -0.57
12 -0.68
13 -0.7
14 -0.7
15 -0.9
16 -0.85
17 -0.85
18 -0.85
19 -0.85
2 -0.56
20 0.28
21 0.28
22 0.34
23 0.56
24 0.25
25 0.28
26 0.28
27 0.28
28 0.28
29 0.25
3 -0.56
30 0.56
31 0.27
32 0.28
33 0.28
34 0.28
36 0.45
37 0.28
38 0.55
39 0.27
4 -0.56
40 0.55
5 -0.68
58 0.06
59 0.4
6 -0.68
60 0.4
61 0.36
62 0.4
63 0.4
66 0.4
67 0.4
7 -0.68
71 0.4
72 0.4
73 0.4
74 0.4
75 0.4
76 0.4
77 0.4
78 0.4
79 0.4
8 -0.68
9 -0.68

>  <PUBCHEM_EFFECTIVE_ROTOR_COUNT>
12.4

>  <PUBCHEM_PHARMACOPHORE_FEATURES>
30
1 1 acceptor
1 10 acceptor
1 10 donor
1 11 acceptor
1 12 acceptor
1 12 donor
1 15 cation
1 15 donor
1 16 donor
1 17 donor
1 18 donor
1 19 donor
1 2 acceptor
1 3 acceptor
1 4 acceptor
1 5 acceptor
1 5 donor
1 6 acceptor
1 6 donor
1 7 acceptor
1 7 donor
1 8 acceptor
1 8 donor
1 9 acceptor
1 9 donor
4 13 16 17 38 cation
4 14 18 19 40 cation
5 2 20 22 23 27 rings
6 21 24 25 26 28 29 rings
6 4 30 31 32 33 34 rings

>  <PUBCHEM_HEAVY_ATOM_COUNT>
40

>  <PUBCHEM_ATOM_DEF_STEREO_COUNT>
15

>  <PUBCHEM_ATOM_UDEF_STEREO_COUNT>
0

>  <PUBCHEM_BOND_DEF_STEREO_COUNT>
0

>  <PUBCHEM_BOND_UDEF_STEREO_COUNT>
0

>  <PUBCHEM_ISOTOPIC_ATOM_COUNT>
0

>  <PUBCHEM_COMPONENT_COUNT>
1

>  <PUBCHEM_CACTVS_TAUTO_COUNT>
4

>  <PUBCHEM_CONFORMER_ID>
00004CC100000003

>  <PUBCHEM_MMFF94_ENERGY>
124.7404

>  <PUBCHEM_FEATURE_SELFOVERLAP>
152.516

>  <PUBCHEM_SHAPE_FINGERPRINT>
10906281 52 18337124435859544613
11828532 37 17535192473694026547
12107698 1 18335417993628119624
12128747 34 18262798463502818414
12156800 1 17193414626568635591
12202916 173 18411977001240246911
12422481 6 17916869148735297934
12553582 1 18194146164244189757
12597179 24 18268146453019444468
12788726 201 18114174211909712433
13402501 40 18342739615312773293
13782708 43 18130790083875009118
13811026 1 18339071696695402167
140371 6 18338521940987373053
14117953 113 18342175587929170781
14659021 117 18407757053636001465
14725015 67 18336545032007361331
15361156 5 18262808478764867284
16993438 75 18341047415520612380
19315092 285 17058926852447060843
20642791 13 18270123405703418949
20764821 26 18191049947794862535
21033648 29 17988910160036488648
23559900 14 18263637544960871345
3383291 50 18334582360865600603
354706 109 18198598038990129753
4073 2 18341051822721534080
4280585 95 18335697282118401501
4403749 210 18272639157006115252
508706 21 18411710863184924886
57527452 28 16845286190252329079
6004065 56 18126837421335737087
6669772 16 18048598123538715685
7226269 152 18040151829395145579

>  <PUBCHEM_SHAPE_MULTIPOLES>
717.88
13.42
5.04
2.11
23.11
2.71
0.83
-2.26
0.27
-6.88
-0.55
-0.44
-1.6
1.63

>  <PUBCHEM_SHAPE_SELFOVERLAP>
1491.828

>  <PUBCHEM_SHAPE_VOLUME>
400.9

>  <PUBCHEM_COORDINATE_TYPE>
2
5
10

$$$$
15541
 OpenBabel12232409013D

 47 49  0  0  1  0  0  0  0  0999 V2000
   -0.8990   -1.0750    0.0951 O   0  0  0  0  0  0  0  0  0  0  0  0
   -0.5814    1.4127   -1.1636 O   0  0  0  0  0  0  0  0  0  0  0  0
   -2.3367    1.5502    0.4073 O   0  0  0  0  0  0  0  0  0  0  0  0
    1.6897    2.9160   -0.3616 O   0  0  0  0  0  0  0  0  0  0  0  0
    3.2008   -1.0676   -1.0704 O   0  0  0  0  0  0  0  0  0  0  0  0
   -1.8385   -1.1393   -2.0761 O   0  0  0  0  0  0  0  0  0  0  0  0
   -3.8315   -2.0518   -0.5908 O   0  0  0  0  0  0  0  0  0  0  0  0
    1.4745   -2.6573    0.5302 N   0  0  0  0  0  0  0  0  0  0  0  0
    4.1811    1.4123   -0.0754 N   0  0  0  0  0  0  0  0  0  0  0  0
    0.3966   -0.6128   -0.3092 C   0  0  1  0  0  0  0  0  0  0  0  0
    0.3976    0.9155   -0.2395 C   0  0  1  0  0  0  0  0  0  0  0  0
    1.4735   -1.1943    0.6181 C   0  0  2  0  0  0  0  0  0  0  0  0
    1.7681    1.5064   -0.5861 C   0  0  2  0  0  0  0  0  0  0  0  0
    2.8631    0.9000    0.3123 C   0  0  1  0  0  0  0  0  0  0  0  0
    2.8634   -0.6398    0.2528 C   0  0  2  0  0  0  0  0  0  0  0  0
   -1.9225   -0.5798   -0.7714 C   0  0  2  0  0  0  0  0  0  0  0  0
   -1.9041    0.9581   -0.8241 C   0  0  2  0  0  0  0  0  0  0  0  0
   -3.2281   -1.0681   -0.1645 C   0  0  0  0  0  0  0  0  0  0  0  0
   -3.6702    1.1719    0.7566 C   0  0  1  0  0  0  0  0  0  0  0  0
   -3.7132   -0.3209    1.0541 C   0  0  0  0  0  0  0  0  0  0  0  0
    2.4830   -3.2212    1.4112 C   0  0  0  0  0  0  0  0  0  0  0  0
    5.2098    0.9026    0.8154 C   0  0  0  0  0  0  0  0  0  0  0  0
   -4.0759    1.9821    1.9795 C   0  0  0  0  0  0  0  0  0  0  0  0
    0.5703   -0.9448   -1.3422 H   0  0  0  0  0  0  0  0  0  0  0  0
    0.1083    1.2572    0.7640 H   0  0  0  0  0  0  0  0  0  0  0  0
    1.2212   -0.9143    1.6503 H   0  0  0  0  0  0  0  0  0  0  0  0
    1.9816    1.3560   -1.6518 H   0  0  0  0  0  0  0  0  0  0  0  0
    2.6609    1.2203    1.3445 H   0  0  0  0  0  0  0  0  0  0  0  0
    3.6123   -1.0280    0.9471 H   0  0  0  0  0  0  0  0  0  0  0  0
   -2.5596    1.3187   -1.6260 H   0  0  0  0  0  0  0  0  0  0  0  0
    1.6341   -2.9645   -0.4278 H   0  0  0  0  0  0  0  0  0  0  0  0
    4.1723    2.4300   -0.0160 H   0  0  0  0  0  0  0  0  0  0  0  0
   -4.3407    1.4235   -0.0751 H   0  0  0  0  0  0  0  0  0  0  0  0
   -4.7320   -0.6411    1.2953 H   0  0  0  0  0  0  0  0  0  0  0  0
   -3.0528   -0.5858    1.8874 H   0  0  0  0  0  0  0  0  0  0  0  0
    2.5028    3.3146   -0.7143 H   0  0  0  0  0  0  0  0  0  0  0  0
    3.3405   -2.0286   -1.0450 H   0  0  0  0  0  0  0  0  0  0  0  0
   -2.0642   -2.0828   -2.0127 H   0  0  0  0  0  0  0  0  0  0  0  0
    3.4965   -3.1451    1.0065 H   0  0  0  0  0  0  0  0  0  0  0  0
    2.2805   -4.2915    1.5272 H   0  0  0  0  0  0  0  0  0  0  0  0
    2.4513   -2.7858    2.4159 H   0  0  0  0  0  0  0  0  0  0  0  0
    6.1220    1.4921    0.6693 H   0  0  0  0  0  0  0  0  0  0  0  0
    5.4865   -0.1305    0.5859 H   0  0  0  0  0  0  0  0  0  0  0  0
    4.9382    0.9929    1.8725 H   0  0  0  0  0  0  0  0  0  0  0  0
   -4.0213    3.0541    1.7611 H   0  0  0  0  0  0  0  0  0  0  0  0
   -5.0954    1.7421    2.2958 H   0  0  0  0  0  0  0  0  0  0  0  0
   -3.3944    1.7980    2.8175 H   0  0  0  0  0  0  0  0  0  0  0  0
  1 10  1  0  0  0  0
  1 16  1  0  0  0  0
  2 11  1  0  0  0  0
  2 17  1  0  0  0  0
  3 17  1  0  0  0  0
  3 19  1  0  0  0  0
  4 13  1  0  0  0  0
  4 36  1  0  0  0  0
  5 15  1  0  0  0  0
  5 37  1  0  0  0  0
  6 38  1  0  0  0  0
  7 18  2  0  0  0  0
  8 12  1  0  0  0  0
  8 21  1  0  0  0  0
  8 31  1  0  0  0  0
  9 14  1  0  0  0  0
  9 22  1  0  0  0  0
  9 32  1  0  0  0  0
 10 11  1  0  0  0  0
 10 12  1  0  0  0  0
 10 24  1  6  0  0  0
 11 13  1  0  0  0  0
 11 25  1  1  0  0  0
 12 15  1  0  0  0  0
 12 26  1  1  0  0  0
 13 14  1  0  0  0  0
 13 27  1  6  0  0  0
 14 15  1  0  0  0  0
 14 28  1  1  0  0  0
 15 29  1  1  0  0  0
 16  6  1  6  0  0  0
 16 17  1  0  0  0  0
 16 18  1  0  0  0  0
 17 30  1  6  0  0  0
 18 20  1  0  0  0  0
 19 20  1  0  0  0  0
 19 23  1  0  0  0  0
 19 33  1  6  0  0  0
 20 34  1  0  0  0  0
 20 35  1  0  0  0  0
 21 39  1  0  0  0  0
 21 40  1  0  0  0  0
 21 41  1  0  0  0  0
 22 42  1  0  0  0  0
 22 43  1  0  0  0  0
 22 44  1  0  0  0  0
 23 45  1  0  0  0  0
 23 46  1  0  0  0  0
 23 47  1  0  0  0  0
M  END
>  <PUBCHEM_COMPOUND_CID>
15541

>  <PUBCHEM_CONFORMER_RMSD>
0.6

>  <PUBCHEM_CONFORMER_DIVERSEORDER>
1
2
3
4

>  <PUBCHEM_MMFF94_PARTIAL_CHARGES>
27
1 -0.56
10 0.28
11 0.28
12 0.27
13 0.28
14 0.27
15 0.28
16 0.62
17 0.56
18 0.45
19 0.28
2 -0.56
20 0.06
21 0.27
22 0.27
3 -0.56
31 0.36
32 0.36
36 0.4
37 0.4
38 0.4
4 -0.68
5 -0.68
6 -0.68
7 -0.57
8 -0.9
9 -0.9

>  <PUBCHEM_EFFECTIVE_ROTOR_COUNT>
3.8

>  <PUBCHEM_PHARMACOPHORE_FEATURES>
17
1 1 acceptor
1 2 acceptor
1 3 acceptor
1 4 acceptor
1 4 donor
1 5 acceptor
1 5 donor
1 6 acceptor
1 6 donor
1 7 acceptor
1 8 cation
1 8 donor
1 9 cation
1 9 donor
6 1 2 10 11 16 17 rings
6 10 11 12 13 14 15 rings
6 3 16 17 18 19 20 rings

>  <PUBCHEM_HEAVY_ATOM_COUNT>
23

>  <PUBCHEM_ATOM_DEF_STEREO_COUNT>
9

>  <PUBCHEM_ATOM_UDEF_STEREO_COUNT>
0

>  <PUBCHEM_BOND_DEF_STEREO_COUNT>
0

>  <PUBCHEM_BOND_UDEF_STEREO_COUNT>
0

>  <PUBCHEM_ISOTOPIC_ATOM_COUNT>
0

>  <PUBCHEM_COMPONENT_COUNT>
1

>  <PUBCHEM_CACTVS_TAUTO_COUNT>
2

>  <PUBCHEM_CONFORMER_ID>
00003CB500000001

>  <PUBCHEM_MMFF94_ENERGY>
53.4778

>  <PUBCHEM_FEATURE_SELFOVERLAP>
86.508

>  <PUBCHEM_SHAPE_FINGERPRINT>
10382601 240 18336268938323771498
11132069 177 18334858307406803125
11578080 2 17841390909377634721
11725454 13 14547307815412127979
12251169 10 18339089198634262289
12553582 1 17975688390425043258
12633257 1 18196373607082256491
12670546 56 18202002118763168961
12892183 10 18263943072186424073
13140716 1 17973164216522096010
13224815 77 18334286565676302350
13583140 156 18260559909415292449
13965767 371 17768561329254337945
14178342 30 18410849992771963842
14223421 5 18259982639392078963
14739800 52 17702929371362783992
14787075 74 18126564750171642376
14790565 3 18189629396242614108
15209289 33 18338233885687676336
15209294 21 18272370875567564576
15309172 13 18260826063657848612
15375462 189 18189623747816527602
15536298 74 18343306955049779700
16945 1 18260259754860692966
1813 80 17458636604748197973
19591789 44 18335133194594817090
200 152 18267854146668106551
20028762 73 18052255395255238622
20600515 1 14779261973560465575
20691752 17 17967819331722752334
20739085 24 18260554377344330152
21041028 32 17902230010061755498
21421861 104 18116431432515242920
21427221 339 18198637531488216353
22445834 79 18409451384217302769
2255824 54 18187372077110369700
2334 1 18262225617411555526
23557571 272 17203051892871886632
23566358 27 18263371308665030022
23598288 3 17989197140907870063
23598291 2 18200864098079263902
25147074 1 18271792498313083951
2748010 2 18045484332051519452
34934 24 18337386050490428669
458136 41 18187375320058435362
474 4 18335140942061632928
5104073 3 18413387622923130906
633830 44 18412268367578595172
7097593 13 18337957787978345897
7832392 63 18341334387923612169

>  <PUBCHEM_SHAPE_MULTIPOLES>
422.28
8.32
2.86
1.36
1.2
0.95
-0.07
-1.72
-2.9
1.17
-0.66
-0.94
0.07
-1.61

>  <PUBCHEM_SHAPE_SELFOVERLAP>
885.926

>  <PUBCHEM_SHAPE_VOLUME>
233.4

>  <PUBCHEM_COORDINATE_TYPE>
2
5
10

$$$$
36119
 OpenBabel12232409013D

 68 70  0  0  1  0  0  0  0  0999 V2000
   -0.9331   -0.4829    0.1286 O   0  0  0  0  0  0  0  0  0  0  0  0
    1.8251   -0.3005   -0.5836 O   0  0  0  0  0  0  0  0  0  0  0  0
   -2.5679    0.4890    1.5034 O   0  0  0  0  0  0  0  0  0  0  0  0
    1.2296   -2.5802    2.1836 O   0  0  0  0  0  0  0  0  0  0  0  0
   -2.0509    1.7140   -1.1147 O   0  0  0  0  0  0  0  0  0  0  0  0
   -6.0019    1.6378    0.8522 O   0  0  0  0  0  0  0  0  0  0  0  0
    3.9814    0.6426   -0.5063 O   0  0  0  0  0  0  0  0  0  0  0  0
   -0.7102   -4.1495    0.4876 N   0  0  0  0  0  0  0  0  0  0  0  0
    2.2363   -3.9579   -0.2750 N   0  0  0  0  0  0  0  0  0  0  0  0
   -5.1731   -0.2176   -0.9930 N   0  0  0  0  0  0  0  0  0  0  0  0
    1.9024    2.4756   -1.5733 N   0  0  0  0  0  0  0  0  0  0  0  0
    6.7043    0.2279    0.3687 N   0  0  0  0  0  0  0  0  0  0  0  0
   -0.5388   -1.6993    0.7674 C   0  0  2  0  0  0  0  0  0  0  0  0
    1.9405   -1.5350    0.1275 C   0  0  1  0  0  0  0  0  0  0  0  0
    0.9077   -1.5390    1.2669 C   0  0  2  0  0  0  0  0  0  0  0  0
   -0.7299   -2.8674   -0.2186 C   0  0  1  0  0  0  0  0  0  0  0  0
    1.7753   -2.7013   -0.8656 C   0  0  2  0  0  0  0  0  0  0  0  0
    0.3178   -2.8201   -1.3471 C   0  0  0  0  0  0  0  0  0  0  0  0
   -2.3270   -0.2391    0.2990 C   0  0  1  0  0  0  0  0  0  0  0  0
   -4.3152    0.9551   -0.7606 C   0  0  2  0  0  0  0  0  0  0  0  0
   -2.8404    0.5389   -0.9210 C   0  0  1  0  0  0  0  0  0  0  0  0
   -4.5872    1.5634    0.6439 C   0  0  2  0  0  0  0  0  0  0  0  0
   -3.9606    0.6922    1.7418 C   0  0  0  0  0  0  0  0  0  0  0  0
    2.6416    0.7105    0.0025 C   0  0  1  0  0  0  0  0  0  0  0  0
   -4.0589    3.0034    0.7505 C   0  0  0  0  0  0  0  0  0  0  0  0
    2.0136    2.1044   -0.1571 C   0  0  1  0  0  0  0  0  0  0  0  0
    2.8876    3.1274    0.5783 C   0  0  0  0  0  0  0  0  0  0  0  0
   -4.9757   -0.7345   -2.3360 C   0  0  0  0  0  0  0  0  0  0  0  0
    4.8024    1.6859   -0.1182 C   0  0  0  0  0  0  0  0  0  0  0  0
    4.3481    2.8375    0.4061 C   0  0  0  0  0  0  0  0  0  0  0  0
    6.2573    1.4188   -0.3378 C   0  0  0  0  0  0  0  0  0  0  0  0
   -1.1681   -1.8649    1.6545 H   0  0  0  0  0  0  0  0  0  0  0  0
    2.9546   -1.6188    0.5460 H   0  0  0  0  0  0  0  0  0  0  0  0
    0.9605   -0.5964    1.8241 H   0  0  0  0  0  0  0  0  0  0  0  0
   -1.7113   -2.7857   -0.7008 H   0  0  0  0  0  0  0  0  0  0  0  0
    2.3993   -2.5028   -1.7458 H   0  0  0  0  0  0  0  0  0  0  0  0
    0.0953   -1.9534   -1.9848 H   0  0  0  0  0  0  0  0  0  0  0  0
    0.2064   -3.6961   -2.0003 H   0  0  0  0  0  0  0  0  0  0  0  0
   -2.8705   -1.1909    0.3571 H   0  0  0  0  0  0  0  0  0  0  0  0
   -4.5817    1.7163   -1.5064 H   0  0  0  0  0  0  0  0  0  0  0  0
   -2.6404   -0.0497   -1.8195 H   0  0  0  0  0  0  0  0  0  0  0  0
   -4.4668   -0.2765    1.8376 H   0  0  0  0  0  0  0  0  0  0  0  0
   -4.0679    1.1782    2.7186 H   0  0  0  0  0  0  0  0  0  0  0  0
   -0.8789   -4.9073   -0.1724 H   0  0  0  0  0  0  0  0  0  0  0  0
   -1.4717   -4.1806    1.1642 H   0  0  0  0  0  0  0  0  0  0  0  0
    2.0850   -4.7216   -0.9329 H   0  0  0  0  0  0  0  0  0  0  0  0
    1.6773   -4.1807    0.5476 H   0  0  0  0  0  0  0  0  0  0  0  0
    2.7103    0.5285    1.0854 H   0  0  0  0  0  0  0  0  0  0  0  0
    2.1248   -2.4088    2.5221 H   0  0  0  0  0  0  0  0  0  0  0  0
   -2.9680    3.0627    0.7323 H   0  0  0  0  0  0  0  0  0  0  0  0
   -4.4570    3.6244   -0.0600 H   0  0  0  0  0  0  0  0  0  0  0  0
   -4.4009    3.4663    1.6840 H   0  0  0  0  0  0  0  0  0  0  0  0
   -4.9905   -0.9497   -0.3095 H   0  0  0  0  0  0  0  0  0  0  0  0
    0.9995    2.1058    0.2584 H   0  0  0  0  0  0  0  0  0  0  0  0
   -2.3745    2.1570   -1.9176 H   0  0  0  0  0  0  0  0  0  0  0  0
   -6.3592    0.7362    0.7806 H   0  0  0  0  0  0  0  0  0  0  0  0
    2.6679    4.1476    0.2412 H   0  0  0  0  0  0  0  0  0  0  0  0
    2.6590    3.0980    1.6509 H   0  0  0  0  0  0  0  0  0  0  0  0
   -4.0923   -1.3743   -2.4187 H   0  0  0  0  0  0  0  0  0  0  0  0
   -4.9359    0.0554   -3.0937 H   0  0  0  0  0  0  0  0  0  0  0  0
   -5.8323   -1.3685   -2.5896 H   0  0  0  0  0  0  0  0  0  0  0  0
    5.0454    3.6126    0.7107 H   0  0  0  0  0  0  0  0  0  0  0  0
    1.5402    3.4250   -1.6520 H   0  0  0  0  0  0  0  0  0  0  0  0
    2.8247    2.4864   -2.0065 H   0  0  0  0  0  0  0  0  0  0  0  0
    6.4294    1.2783   -1.4111 H   0  0  0  0  0  0  0  0  0  0  0  0
    6.8734    2.2707   -0.0279 H   0  0  0  0  0  0  0  0  0  0  0  0
    7.6804    0.0456    0.1379 H   0  0  0  0  0  0  0  0  0  0  0  0
    6.6834    0.3990    1.3737 H   0  0  0  0  0  0  0  0  0  0  0  0
  1 13  1  0  0  0  0
  1 19  1  0  0  0  0
  2 14  1  0  0  0  0
  2 24  1  0  0  0  0
  3 19  1  0  0  0  0
  3 23  1  0  0  0  0
  4 15  1  0  0  0  0
  4 49  1  0  0  0  0
  5 21  1  0  0  0  0
  5 55  1  0  0  0  0
  6 56  1  0  0  0  0
  7 24  1  0  0  0  0
  7 29  1  0  0  0  0
  8 16  1  0  0  0  0
  8 44  1  0  0  0  0
  8 45  1  0  0  0  0
  9 17  1  0  0  0  0
  9 46  1  0  0  0  0
  9 47  1  0  0  0  0
 10 20  1  0  0  0  0
 10 28  1  0  0  0  0
 10 53  1  0  0  0  0
 11 26  1  0  0  0  0
 11 63  1  0  0  0  0
 11 64  1  0  0  0  0
 12 31  1  0  0  0  0
 12 67  1  0  0  0  0
 12 68  1  0  0  0  0
 13 15  1  0  0  0  0
 13 16  1  0  0  0  0
 13 32  1  1  0  0  0
 14 15  1  0  0  0  0
 14 17  1  0  0  0  0
 14 33  1  1  0  0  0
 15 34  1  1  0  0  0
 16 18  1  0  0  0  0
 16 35  1  6  0  0  0
 17 18  1  0  0  0  0
 17 36  1  6  0  0  0
 18 37  1  0  0  0  0
 18 38  1  0  0  0  0
 19 21  1  0  0  0  0
 19 39  1  1  0  0  0
 20 21  1  0  0  0  0
 20 22  1  0  0  0  0
 20 40  1  6  0  0  0
 21 41  1  6  0  0  0
 22  6  1  1  0  0  0
 22 23  1  0  0  0  0
 22 25  1  0  0  0  0
 23 42  1  0  0  0  0
 23 43  1  0  0  0  0
 24 26  1  0  0  0  0
 24 48  1  1  0  0  0
 25 50  1  0  0  0  0
 25 51  1  0  0  0  0
 25 52  1  0  0  0  0
 26 27  1  0  0  0  0
 26 54  1  1  0  0  0
 27 30  1  0  0  0  0
 27 57  1  0  0  0  0
 27 58  1  0  0  0  0
 28 59  1  0  0  0  0
 28 60  1  0  0  0  0
 28 61  1  0  0  0  0
 29 30  2  0  0  0  0
 29 31  1  0  0  0  0
 30 62  1  0  0  0  0
 31 65  1  0  0  0  0
 31 66  1  0  0  0  0
M  END
>  <PUBCHEM_COMPOUND_CID>
36119

>  <PUBCHEM_CONFORMER_RMSD>
1

>  <PUBCHEM_CONFORMER_DIVERSEORDER>
3
64
53
65
12
49
26
67
51
59
23
35
20
77
22
72
24
16
32
21
56
4
41
46
30
17
54
47
71
18
36
37
8
44
15
63
76
40
45
38
61
68
34
6
9
50
28
39
10
66
11
14
60
27
57
74
1
48
19
62
25
43
75
7
31
13
69
5
2
55
70
73
58
29
52
42
33

>  <PUBCHEM_MMFF94_PARTIAL_CHARGES>
42
1 -0.56
10 -0.9
11 -0.99
12 -0.99
13 0.28
14 0.28
15 0.28
16 0.27
17 0.27
19 0.56
2 -0.56
20 0.27
21 0.28
22 0.28
23 0.28
24 0.56
26 0.27
27 0.14
28 0.27
29 -0.06
3 -0.56
30 -0.29
31 0.41
4 -0.68
44 0.36
45 0.36
46 0.36
47 0.36
49 0.4
5 -0.68
53 0.36
55 0.4
56 0.4
6 -0.68
62 0.15
63 0.36
64 0.36
67 0.36
68 0.36
7 -0.36
8 -0.99
9 -0.99

>  <PUBCHEM_EFFECTIVE_ROTOR_COUNT>
9.2

>  <PUBCHEM_PHARMACOPHORE_FEATURES>
23
1 1 acceptor
1 10 cation
1 10 donor
1 11 cation
1 11 donor
1 12 cation
1 12 donor
1 2 acceptor
1 3 acceptor
1 4 acceptor
1 4 donor
1 5 acceptor
1 5 donor
1 6 acceptor
1 6 donor
1 7 acceptor
1 8 cation
1 8 donor
1 9 cation
1 9 donor
6 13 14 15 16 17 18 rings
6 3 19 20 21 22 23 rings
6 7 24 26 27 29 30 rings

>  <PUBCHEM_HEAVY_ATOM_COUNT>
31

>  <PUBCHEM_ATOM_DEF_STEREO_COUNT>
11

>  <PUBCHEM_ATOM_UDEF_STEREO_COUNT>
0

>  <PUBCHEM_BOND_DEF_STEREO_COUNT>
0

>  <PUBCHEM_BOND_UDEF_STEREO_COUNT>
0

>  <PUBCHEM_ISOTOPIC_ATOM_COUNT>
0

>  <PUBCHEM_COMPONENT_COUNT>
1

>  <PUBCHEM_CACTVS_TAUTO_COUNT>
1

>  <PUBCHEM_CONFORMER_ID>
00008D1700000003

>  <PUBCHEM_MMFF94_ENERGY>
72.8265

>  <PUBCHEM_FEATURE_SELFOVERLAP>
116.832

>  <PUBCHEM_SHAPE_FINGERPRINT>
11049842 53 15479036112268243711
11513181 2 18129383696232392012
12788726 201 17325216615441558436
13583140 156 17167857608198957017
13631057 29 18057877125704589047
14713325 29 18194407916241077378
15664445 248 17696203508058823007
15775530 1 18118996730355976666
20567600 254 18040707086951344029
21033648 144 18114457886431872311
21033648 29 16298945343362888343
23558518 356 17973727179824629578
23559900 14 16700900367586220085
24771293 8 18129084634125032162
283562 15 17904758126344059314
2838139 119 18413107277496529016
329604 57 10375879567566997312
3411729 13 18263087634395733320
350125 39 18194973065396725434
38695281 34 18343305851190514910
469060 322 16806713170197090167
474 4 18340206289410200155
5385378 56 18338804416432299266
59755656 520 18410009974409783725
6287921 2 18128531562062874967
9981440 41 18340204210234722115

>  <PUBCHEM_SHAPE_MULTIPOLES>
571.98
12.43
4.59
1.52
2.33
3.04
0.04
-10.82
1.09
2.12
-0.35
-1.6
0.35
-1.1

>  <PUBCHEM_SHAPE_SELFOVERLAP>
1175.241

>  <PUBCHEM_SHAPE_VOLUME>
324.3

>  <PUBCHEM_COORDINATE_TYPE>
2
5
10

$$$$
165580
 OpenBabel12232409013D

 87 90  0  0  1  0  0  0  0  0999 V2000
   -0.6924   -1.5556    0.2040 O   0  0  0  0  0  0  0  0  0  0  0  0
   -3.0794   -0.1245    0.7944 O   0  0  0  0  0  0  0  0  0  0  0  0
   -0.0240   -1.4510    2.4577 O   0  0  0  0  0  0  0  0  0  0  0  0
    3.2730   -0.3591    1.5591 O   0  0  0  0  0  0  0  0  0  0  0  0
   -1.1369   -4.3895   -0.2220 O   0  0  0  0  0  0  0  0  0  0  0  0
   -3.4668    1.5773   -0.7758 O   0  0  0  0  0  0  0  0  0  0  0  0
    3.4736    0.6008   -0.5792 O   0  0  0  0  0  0  0  0  0  0  0  0
    2.3822   -2.9548    1.4649 O   0  0  0  0  0  0  0  0  0  0  0  0
   -0.9601    3.6212    0.7897 O   0  0  0  0  0  0  0  0  0  0  0  0
   -4.4269    4.3083    0.0121 O   0  0  0  0  0  0  0  0  0  0  0  0
    6.3233   -1.4365   -1.2428 O   0  0  0  0  0  0  0  0  0  0  0  0
    0.0235    0.5747    4.4201 O   0  0  0  0  0  0  0  0  0  0  0  0
    5.8057    2.1710   -1.4264 O   0  0  0  0  0  0  0  0  0  0  0  0
   -1.9273    1.6436   -3.0643 O   0  0  0  0  0  0  0  0  0  0  0  0
   -5.2894   -0.6592   -1.0105 N   0  0  0  0  0  0  0  0  0  0  0  0
   -3.2830   -4.9863   -2.0627 N   0  0  0  0  0  0  0  0  0  0  0  0
   -4.1179    2.1778    2.0433 N   0  0  0  0  0  0  0  0  0  0  0  0
    5.6735    1.1062    1.3365 N   0  0  0  0  0  0  0  0  0  0  0  0
    1.9379    1.2402   -2.8267 N   0  0  0  0  0  0  0  0  0  0  0  0
   -1.9834   -2.1722    0.1738 C   0  0  1  0  0  0  0  0  0  0  0  0
   -2.9963   -1.1019   -0.2470 C   0  0  1  0  0  0  0  0  0  0  0  0
   -4.3879   -1.6959   -0.5015 C   0  0  2  0  0  0  0  0  0  0  0  0
   -1.9461   -3.3593   -0.7956 C   0  0  2  0  0  0  0  0  0  0  0  0
   -3.3473   -3.9330   -1.0455 C   0  0  1  0  0  0  0  0  0  0  0  0
   -4.3225   -2.8470   -1.5087 C   0  0  0  0  0  0  0  0  0  0  0  0
    0.1339   -2.1420    1.2025 C   0  0  2  0  0  0  0  0  0  0  0  0
    1.8940   -0.5991    1.3756 C   0  0  1  0  0  0  0  0  0  0  0  0
    1.5927   -1.9704    0.8049 C   0  0  1  0  0  0  0  0  0  0  0  0
    1.1425   -0.6434    2.6960 C   0  0  1  0  0  0  0  0  0  0  0  0
   -2.6673    1.1608    0.3298 C   0  0  1  0  0  0  0  0  0  0  0  0
   -2.7609    2.1676    1.4862 C   0  0  1  0  0  0  0  0  0  0  0  0
    3.9854   -0.3801    0.3242 C   0  0  1  0  0  0  0  0  0  0  0  0
   -2.3710    3.5726    1.0013 C   0  0  2  0  0  0  0  0  0  0  0  0
    5.4817   -0.1436    0.5936 C   0  0  1  0  0  0  0  0  0  0  0  0
   -3.0758    3.9613   -0.3040 C   0  0  1  0  0  0  0  0  0  0  0  0
   -3.0947    2.8350   -1.3525 C   0  0  1  0  0  0  0  0  0  0  0  0
    6.2614   -0.1035   -0.7311 C   0  0  2  0  0  0  0  0  0  0  0  0
    0.7222    0.7277    3.1954 C   0  0  0  0  0  0  0  0  0  0  0  0
    5.5946    0.8047   -1.7748 C   0  0  1  0  0  0  0  0  0  0  0  0
    4.0855    0.5247   -1.8728 C   0  0  2  0  0  0  0  0  0  0  0  0
   -1.7947    2.7124   -2.1453 C   0  0  0  0  0  0  0  0  0  0  0  0
    3.3655    1.5199   -2.7761 C   0  0  0  0  0  0  0  0  0  0  0  0
   -2.2448   -2.5092    1.1876 H   0  0  0  0  0  0  0  0  0  0  0  0
   -2.6212   -0.6534   -1.1794 H   0  0  0  0  0  0  0  0  0  0  0  0
   -4.8042   -2.0599    0.4466 H   0  0  0  0  0  0  0  0  0  0  0  0
   -1.4648   -3.0596   -1.7348 H   0  0  0  0  0  0  0  0  0  0  0  0
   -3.7268   -4.3897   -0.1222 H   0  0  0  0  0  0  0  0  0  0  0  0
   -5.3232   -3.2799   -1.6411 H   0  0  0  0  0  0  0  0  0  0  0  0
   -4.0126   -2.4641   -2.4917 H   0  0  0  0  0  0  0  0  0  0  0  0
   -0.0913   -3.1922    1.3963 H   0  0  0  0  0  0  0  0  0  0  0  0
    1.4507    0.1771    0.7369 H   0  0  0  0  0  0  0  0  0  0  0  0
    1.7595   -2.0429   -0.2741 H   0  0  0  0  0  0  0  0  0  0  0  0
    1.7287   -1.1464    3.4755 H   0  0  0  0  0  0  0  0  0  0  0  0
   -1.6195    1.0720    0.0187 H   0  0  0  0  0  0  0  0  0  0  0  0
   -2.0897    1.8422    2.2876 H   0  0  0  0  0  0  0  0  0  0  0  0
    3.8828   -1.3731   -0.1295 H   0  0  0  0  0  0  0  0  0  0  0  0
   -2.5994    4.3130    1.7784 H   0  0  0  0  0  0  0  0  0  0  0  0
   -5.3668    0.0920   -0.3259 H   0  0  0  0  0  0  0  0  0  0  0  0
   -6.2262   -1.0445   -1.1230 H   0  0  0  0  0  0  0  0  0  0  0  0
    5.8517   -0.9631    1.2227 H   0  0  0  0  0  0  0  0  0  0  0  0
   -4.2043   -5.4058   -2.1806 H   0  0  0  0  0  0  0  0  0  0  0  0
   -2.6653   -5.7313   -1.7427 H   0  0  0  0  0  0  0  0  0  0  0  0
   -2.6081    4.8566   -0.7306 H   0  0  0  0  0  0  0  0  0  0  0  0
   -3.8923    3.0428   -2.0770 H   0  0  0  0  0  0  0  0  0  0  0  0
    7.2934    0.2176   -0.5437 H   0  0  0  0  0  0  0  0  0  0  0  0
   -1.5873   -4.7177    0.5751 H   0  0  0  0  0  0  0  0  0  0  0  0
    1.5934    1.3681    3.3640 H   0  0  0  0  0  0  0  0  0  0  0  0
    0.0528    1.2120    2.4810 H   0  0  0  0  0  0  0  0  0  0  0  0
    6.0455    0.6449   -2.7615 H   0  0  0  0  0  0  0  0  0  0  0  0
    3.9281   -0.4886   -2.2676 H   0  0  0  0  0  0  0  0  0  0  0  0
    2.1236   -3.8216    1.1080 H   0  0  0  0  0  0  0  0  0  0  0  0
   -4.3546    1.2453    2.3800 H   0  0  0  0  0  0  0  0  0  0  0  0
   -4.1505    2.7951    2.8535 H   0  0  0  0  0  0  0  0  0  0  0  0
   -1.5928    3.6340   -2.7006 H   0  0  0  0  0  0  0  0  0  0  0  0
   -0.9336    2.4951   -1.5095 H   0  0  0  0  0  0  0  0  0  0  0  0
    3.4811    2.5400   -2.3943 H   0  0  0  0  0  0  0  0  0  0  0  0
    3.7839    1.4883   -3.7879 H   0  0  0  0  0  0  0  0  0  0  0  0
    6.6594    1.2181    1.5688 H   0  0  0  0  0  0  0  0  0  0  0  0
    5.1712    1.0562    2.2219 H   0  0  0  0  0  0  0  0  0  0  0  0
   -0.5293    3.4266    1.6393 H   0  0  0  0  0  0  0  0  0  0  0  0
   -4.8469    4.6283   -0.8045 H   0  0  0  0  0  0  0  0  0  0  0  0
    6.8434   -1.4107   -2.0641 H   0  0  0  0  0  0  0  0  0  0  0  0
    6.7661    2.3203   -1.3952 H   0  0  0  0  0  0  0  0  0  0  0  0
   -0.2412    1.4640    4.7112 H   0  0  0  0  0  0  0  0  0  0  0  0
    1.7830    0.3050   -3.2010 H   0  0  0  0  0  0  0  0  0  0  0  0
    1.4876    1.8857   -3.4741 H   0  0  0  0  0  0  0  0  0  0  0  0
   -1.0930    1.5862   -3.5605 H   0  0  0  0  0  0  0  0  0  0  0  0
  1 20  1  0  0  0  0
  1 26  1  0  0  0  0
  2 21  1  0  0  0  0
  2 30  1  0  0  0  0
  3 26  1  0  0  0  0
  3 29  1  0  0  0  0
  4 27  1  0  0  0  0
  4 32  1  0  0  0  0
  5 23  1  0  0  0  0
  5 66  1  0  0  0  0
  6 30  1  0  0  0  0
  6 36  1  0  0  0  0
  7 32  1  0  0  0  0
  7 40  1  0  0  0  0
  8 28  1  0  0  0  0
  8 71  1  0  0  0  0
  9 33  1  0  0  0  0
  9 80  1  0  0  0  0
 10 35  1  0  0  0  0
 10 81  1  0  0  0  0
 11 37  1  0  0  0  0
 11 82  1  0  0  0  0
 12 38  1  0  0  0  0
 12 84  1  0  0  0  0
 13 39  1  0  0  0  0
 13 83  1  0  0  0  0
 14 41  1  0  0  0  0
 14 87  1  0  0  0  0
 15 22  1  0  0  0  0
 15 58  1  0  0  0  0
 15 59  1  0  0  0  0
 16 24  1  0  0  0  0
 16 61  1  0  0  0  0
 16 62  1  0  0  0  0
 17 31  1  0  0  0  0
 17 72  1  0  0  0  0
 17 73  1  0  0  0  0
 18 34  1  0  0  0  0
 18 78  1  0  0  0  0
 18 79  1  0  0  0  0
 19 42  1  0  0  0  0
 19 85  1  0  0  0  0
 19 86  1  0  0  0  0
 20 21  1  0  0  0  0
 20 23  1  0  0  0  0
 20 43  1  1  0  0  0
 21 22  1  0  0  0  0
 21 44  1  6  0  0  0
 22 25  1  0  0  0  0
 22 45  1  1  0  0  0
 23 24  1  0  0  0  0
 23 46  1  6  0  0  0
 24 25  1  0  0  0  0
 24 47  1  1  0  0  0
 25 48  1  0  0  0  0
 25 49  1  0  0  0  0
 26 28  1  0  0  0  0
 26 50  1  1  0  0  0
 27 28  1  0  0  0  0
 27 29  1  0  0  0  0
 27 51  1  6  0  0  0
 28 52  1  6  0  0  0
 29 38  1  0  0  0  0
 29 53  1  1  0  0  0
 30 31  1  0  0  0  0
 30 54  1  6  0  0  0
 31 33  1  0  0  0  0
 31 55  1  1  0  0  0
 32 34  1  0  0  0  0
 32 56  1  6  0  0  0
 33 35  1  0  0  0  0
 33 57  1  1  0  0  0
 34 37  1  0  0  0  0
 34 60  1  1  0  0  0
 35 36  1  0  0  0  0
 35 63  1  6  0  0  0
 36 41  1  0  0  0  0
 36 64  1  6  0  0  0
 37 39  1  0  0  0  0
 37 65  1  1  0  0  0
 38 67  1  0  0  0  0
 38 68  1  0  0  0  0
 39 40  1  0  0  0  0
 39 69  1  6  0  0  0
 40 42  1  0  0  0  0
 40 70  1  6  0  0  0
 41 74  1  0  0  0  0
 41 75  1  0  0  0  0
 42 76  1  0  0  0  0
 42 77  1  0  0  0  0
M  END
>  <PUBCHEM_COMPOUND_CID>
165580

>  <PUBCHEM_CONFORMER_RMSD>
1.2

>  <PUBCHEM_CONFORMER_DIVERSEORDER>
1
23
15
25
24
18
8
22
12
13
17
19
11
6
14
16
21
2
4
26
5
28
9
20
27
10
29
7
3

>  <PUBCHEM_MMFF94_PARTIAL_CHARGES>
59
1 -0.56
10 -0.68
11 -0.68
12 -0.68
13 -0.68
14 -0.68
15 -0.99
16 -0.99
17 -0.99
18 -0.99
19 -0.99
2 -0.56
20 0.28
21 0.28
22 0.27
23 0.28
24 0.27
26 0.56
27 0.28
28 0.28
29 0.28
3 -0.56
30 0.56
31 0.27
32 0.56
33 0.28
34 0.27
35 0.28
36 0.28
37 0.28
38 0.28
39 0.28
4 -0.56
40 0.28
41 0.28
42 0.27
5 -0.68
58 0.36
59 0.36
6 -0.56
61 0.36
62 0.36
66 0.4
7 -0.56
71 0.4
72 0.36
73 0.36
78 0.36
79 0.36
8 -0.68
80 0.4
81 0.4
82 0.4
83 0.4
84 0.4
85 0.36
86 0.36
87 0.4
9 -0.68

>  <PUBCHEM_EFFECTIVE_ROTOR_COUNT>
13.6

>  <PUBCHEM_PHARMACOPHORE_FEATURES>
36
1 1 acceptor
1 10 acceptor
1 10 donor
1 11 acceptor
1 11 donor
1 12 acceptor
1 12 donor
1 13 acceptor
1 13 donor
1 14 acceptor
1 14 donor
1 15 cation
1 15 donor
1 16 cation
1 16 donor
1 17 cation
1 17 donor
1 18 cation
1 18 donor
1 19 cation
1 19 donor
1 2 acceptor
1 3 acceptor
1 4 acceptor
1 5 acceptor
1 5 donor
1 6 acceptor
1 7 acceptor
1 8 acceptor
1 8 donor
1 9 acceptor
1 9 donor
5 3 26 27 28 29 rings
6 20 21 22 23 24 25 rings
6 6 30 31 33 35 36 rings
6 7 32 34 37 39 40 rings

>  <PUBCHEM_HEAVY_ATOM_COUNT>
42

>  <PUBCHEM_ATOM_DEF_STEREO_COUNT>
19

>  <PUBCHEM_ATOM_UDEF_STEREO_COUNT>
0

>  <PUBCHEM_BOND_DEF_STEREO_COUNT>
0

>  <PUBCHEM_BOND_UDEF_STEREO_COUNT>
0

>  <PUBCHEM_ISOTOPIC_ATOM_COUNT>
0

>  <PUBCHEM_COMPONENT_COUNT>
1

>  <PUBCHEM_CACTVS_TAUTO_COUNT>
1

>  <PUBCHEM_CONFORMER_ID>
000286CC00000001

>  <PUBCHEM_MMFF94_ENERGY>
105.4393

>  <PUBCHEM_FEATURE_SELFOVERLAP>
182.902

>  <PUBCHEM_SHAPE_FINGERPRINT>
10165383 225 18058178241466134449
10670039 82 18408044005165519162
11049842 53 17839163135199774299
11513181 2 18124311606007145022
12422481 6 17606659355050824872
12788726 201 18409160030974541159
13761468 95 18044661893154324244
14068700 675 18263915712769942973
14840074 17 18260552208596887661
14955137 171 18048606108115742299
15021287 119 17678446468922982010
15264996 74 17752733966587578636
15297060 5 18127971901907092881
15406563 228 18196382416582712622
15419009 47 18268162955138929766
15513586 35 17677064549978457516
15968369 153 17971497292765614848
17974551 9 13990280789332764809
19311894 1 18410858729073456804
21033650 10 18409172121449891722
22122407 14 16515951593259455967
22907989 373 18193249959288485991
23536364 44 17489591125772365250
3388396 114 17758975000914797796
46194498 28 17274249686329189864
581034 39 18411142407057192990
6608658 132 18334856151385864367
6700243 42 17987254385176175974

>  <PUBCHEM_SHAPE_MULTIPOLES>
757.26
12.46
5.64
3.24
17.33
0.96
-1.42
-1.51
5.91
-9.94
1.89
1.26
-0.99
-3.05

>  <PUBCHEM_SHAPE_SELFOVERLAP>
1570.639

>  <PUBCHEM_SHAPE_VOLUME>
423.2

>  <PUBCHEM_COORDINATE_TYPE>
2
5
10

$$$$
441306
 OpenBabel12232409013D

 74 76  0  0  1  0  0  0  0  0999 V2000
   -0.7117   -0.1238    0.2893 O   0  0  0  0  0  0  0  0  0  0  0  0
    2.1047    0.2952    0.0882 O   0  0  0  0  0  0  0  0  0  0  0  0
   -2.5914    0.5968    1.4956 O   0  0  0  0  0  0  0  0  0  0  0  0
    1.2359   -2.3729    2.3982 O   0  0  0  0  0  0  0  0  0  0  0  0
   -1.7737    2.1520   -0.8572 O   0  0  0  0  0  0  0  0  0  0  0  0
   -5.9586    1.6527    0.4551 O   0  0  0  0  0  0  0  0  0  0  0  0
    4.1318    1.3652    0.6572 O   0  0  0  0  0  0  0  0  0  0  0  0
   -0.2824   -3.7887    0.2091 N   0  0  0  0  0  0  0  0  0  0  0  0
    2.7269   -3.3443   -0.0080 N   0  0  0  0  0  0  0  0  0  0  0  0
   -4.7476    0.0748   -1.4365 N   0  0  0  0  0  0  0  0  0  0  0  0
    0.6253    2.5585    1.1515 N   0  0  0  0  0  0  0  0  0  0  0  0
    6.1263    0.4966   -1.2948 N   0  0  0  0  0  0  0  0  0  0  0  0
   -0.3385   -1.3953    0.8252 C   0  0  1  0  0  0  0  0  0  0  0  0
   -0.2808   -2.4239   -0.3202 C   0  0  1  0  0  0  0  0  0  0  0  0
    0.9919   -1.2326    1.5808 C   0  0  2  0  0  0  0  0  0  0  0  0
    2.1930   -1.0185    0.6447 C   0  0  1  0  0  0  0  0  0  0  0  0
    2.2772   -2.0430   -0.5030 C   0  0  2  0  0  0  0  0  0  0  0  0
    0.9301   -2.1678   -1.2377 C   0  0  0  0  0  0  0  0  0  0  0  0
   -2.1283    0.0316    0.2688 C   0  0  1  0  0  0  0  0  0  0  0  0
   -4.0114    1.2500   -0.9442 C   0  0  2  0  0  0  0  0  0  0  0  0
   -2.5052    0.9262   -0.9209 C   0  0  1  0  0  0  0  0  0  0  0  0
   -4.5269    1.6708    0.4607 C   0  0  2  0  0  0  0  0  0  0  0  0
   -4.0141    0.7039    1.5373 C   0  0  0  0  0  0  0  0  0  0  0  0
    2.7257    1.2589    0.9385 C   0  0  1  0  0  0  0  0  0  0  0  0
   -0.7879   -4.7219   -0.7838 C   0  0  0  0  0  0  0  0  0  0  0  0
   -4.1148    3.1106    0.8084 C   0  0  0  0  0  0  0  0  0  0  0  0
    2.0394    2.6244    0.7952 C   0  0  1  0  0  0  0  0  0  0  0  0
    2.2047    3.1424   -0.6366 C   0  0  0  0  0  0  0  0  0  0  0  0
   -0.7953   -6.1434   -0.2475 C   0  0  0  0  0  0  0  0  0  0  0  0
   -4.6733   -0.0023   -2.8849 C   0  0  0  0  0  0  0  0  0  0  0  0
    4.4590    2.0874   -0.4766 C   0  0  0  0  0  0  0  0  0  0  0  0
    3.6013    2.8987   -1.1200 C   0  0  0  0  0  0  0  0  0  0  0  0
    5.8686    1.8818   -0.9319 C   0  0  0  0  0  0  0  0  0  0  0  0
   -1.0897   -1.7096    1.5649 H   0  0  0  0  0  0  0  0  0  0  0  0
   -1.1786   -2.2821   -0.9362 H   0  0  0  0  0  0  0  0  0  0  0  0
    0.8853   -0.3760    2.2560 H   0  0  0  0  0  0  0  0  0  0  0  0
    3.1286   -1.1029    1.2171 H   0  0  0  0  0  0  0  0  0  0  0  0
    3.0171   -1.6903   -1.2331 H   0  0  0  0  0  0  0  0  0  0  0  0
    0.7510   -1.2247   -1.7734 H   0  0  0  0  0  0  0  0  0  0  0  0
    1.0042   -2.9250   -2.0271 H   0  0  0  0  0  0  0  0  0  0  0  0
   -2.6166   -0.9427    0.1320 H   0  0  0  0  0  0  0  0  0  0  0  0
   -4.2089    2.0943   -1.6194 H   0  0  0  0  0  0  0  0  0  0  0  0
   -2.1625    0.4441   -1.8420 H   0  0  0  0  0  0  0  0  0  0  0  0
   -0.8756   -3.8399    1.0370 H   0  0  0  0  0  0  0  0  0  0  0  0
   -4.4661   -0.2909    1.4358 H   0  0  0  0  0  0  0  0  0  0  0  0
   -4.2960    1.0582    2.5357 H   0  0  0  0  0  0  0  0  0  0  0  0
    3.6555   -3.2542    0.4020 H   0  0  0  0  0  0  0  0  0  0  0  0
    2.8169   -3.9955   -0.7867 H   0  0  0  0  0  0  0  0  0  0  0  0
    2.6487    0.9578    1.9911 H   0  0  0  0  0  0  0  0  0  0  0  0
    2.0505   -2.2058    2.9021 H   0  0  0  0  0  0  0  0  0  0  0  0
   -1.8125   -4.4590   -1.0737 H   0  0  0  0  0  0  0  0  0  0  0  0
   -0.1736   -4.7128   -1.6897 H   0  0  0  0  0  0  0  0  0  0  0  0
   -4.4384    3.8071    0.0266 H   0  0  0  0  0  0  0  0  0  0  0  0
   -4.6075    3.4399    1.7312 H   0  0  0  0  0  0  0  0  0  0  0  0
   -3.0378    3.2250    0.9533 H   0  0  0  0  0  0  0  0  0  0  0  0
   -5.7280    0.1588   -1.1676 H   0  0  0  0  0  0  0  0  0  0  0  0
    2.5361    3.3322    1.4731 H   0  0  0  0  0  0  0  0  0  0  0  0
   -1.9974    2.6692   -1.6496 H   0  0  0  0  0  0  0  0  0  0  0  0
   -6.2660    1.8544    1.3554 H   0  0  0  0  0  0  0  0  0  0  0  0
    1.5080    2.6473   -1.3248 H   0  0  0  0  0  0  0  0  0  0  0  0
    1.9851    4.2161   -0.6700 H   0  0  0  0  0  0  0  0  0  0  0  0
    0.2144   -6.4666    0.0275 H   0  0  0  0  0  0  0  0  0  0  0  0
   -1.4358   -6.2302    0.6367 H   0  0  0  0  0  0  0  0  0  0  0  0
   -1.1755   -6.8334   -1.0077 H   0  0  0  0  0  0  0  0  0  0  0  0
   -3.6559   -0.1637   -3.2508 H   0  0  0  0  0  0  0  0  0  0  0  0
   -5.0886    0.8910   -3.3635 H   0  0  0  0  0  0  0  0  0  0  0  0
   -5.2667   -0.8574   -3.2255 H   0  0  0  0  0  0  0  0  0  0  0  0
    3.9120    3.4216   -2.0199 H   0  0  0  0  0  0  0  0  0  0  0  0
    0.5280    2.2595    2.1207 H   0  0  0  0  0  0  0  0  0  0  0  0
    0.2111    3.4876    1.0914 H   0  0  0  0  0  0  0  0  0  0  0  0
    6.5559    2.1830   -0.1329 H   0  0  0  0  0  0  0  0  0  0  0  0
    6.0956    2.5151   -1.7971 H   0  0  0  0  0  0  0  0  0  0  0  0
    7.0866    0.4079   -1.6256 H   0  0  0  0  0  0  0  0  0  0  0  0
    6.0631   -0.0920   -0.4645 H   0  0  0  0  0  0  0  0  0  0  0  0
  1 13  1  0  0  0  0
  1 19  1  0  0  0  0
  2 16  1  0  0  0  0
  2 24  1  0  0  0  0
  3 19  1  0  0  0  0
  3 23  1  0  0  0  0
  4 15  1  0  0  0  0
  4 50  1  0  0  0  0
  5 21  1  0  0  0  0
  5 58  1  0  0  0  0
  6 59  1  0  0  0  0
  7 24  1  0  0  0  0
  7 31  1  0  0  0  0
  8 14  1  0  0  0  0
  8 25  1  0  0  0  0
  8 44  1  0  0  0  0
  9 17  1  0  0  0  0
  9 47  1  0  0  0  0
  9 48  1  0  0  0  0
 10 20  1  0  0  0  0
 10 30  1  0  0  0  0
 10 56  1  0  0  0  0
 11 27  1  0  0  0  0
 11 69  1  0  0  0  0
 11 70  1  0  0  0  0
 12 33  1  0  0  0  0
 12 73  1  0  0  0  0
 12 74  1  0  0  0  0
 13 14  1  0  0  0  0
 13 15  1  0  0  0  0
 13 34  1  1  0  0  0
 14 18  1  0  0  0  0
 14 35  1  6  0  0  0
 15 16  1  0  0  0  0
 15 36  1  1  0  0  0
 16 17  1  0  0  0  0
 16 37  1  1  0  0  0
 17 18  1  0  0  0  0
 17 38  1  6  0  0  0
 18 39  1  0  0  0  0
 18 40  1  0  0  0  0
 19 21  1  0  0  0  0
 19 41  1  6  0  0  0
 20 21  1  0  0  0  0
 20 22  1  0  0  0  0
 20 42  1  6  0  0  0
 21 43  1  6  0  0  0
 22  6  1  6  0  0  0
 22 23  1  0  0  0  0
 22 26  1  0  0  0  0
 23 45  1  0  0  0  0
 23 46  1  0  0  0  0
 24 27  1  0  0  0  0
 24 49  1  1  0  0  0
 25 29  1  0  0  0  0
 25 51  1  0  0  0  0
 25 52  1  0  0  0  0
 26 53  1  0  0  0  0
 26 54  1  0  0  0  0
 26 55  1  0  0  0  0
 27 28  1  0  0  0  0
 27 57  1  1  0  0  0
 28 32  1  0  0  0  0
 28 60  1  0  0  0  0
 28 61  1  0  0  0  0
 29 62  1  0  0  0  0
 29 63  1  0  0  0  0
 29 64  1  0  0  0  0
 30 65  1  0  0  0  0
 30 66  1  0  0  0  0
 30 67  1  0  0  0  0
 31 32  2  0  0  0  0
 31 33  1  0  0  0  0
 32 68  1  0  0  0  0
 33 71  1  0  0  0  0
 33 72  1  0  0  0  0
M  END
>  <PUBCHEM_COMPOUND_CID>
441306

>  <PUBCHEM_CONFORMER_RMSD>
1

>  <PUBCHEM_CONFORMER_DIVERSEORDER>
1
34
43
6
42
35
33
23
24
44
5
48
18
27
26
40
2
28
31
14
12
20
45
8
41
21
15
32
38
29
16
49
17
10
11
22
13
39
47
3
25
7
9
36
19
30
46
4
37

>  <PUBCHEM_MMFF94_PARTIAL_CHARGES>
42
1 -0.56
10 -0.9
11 -0.99
12 -0.99
13 0.28
14 0.27
15 0.28
16 0.28
17 0.27
19 0.56
2 -0.56
20 0.27
21 0.28
22 0.28
23 0.28
24 0.56
25 0.27
27 0.27
28 0.14
3 -0.56
30 0.27
31 -0.06
32 -0.29
33 0.41
4 -0.68
44 0.36
47 0.36
48 0.36
5 -0.68
50 0.4
56 0.36
58 0.4
59 0.4
6 -0.68
68 0.15
69 0.36
7 -0.36
70 0.36
73 0.36
74 0.36
8 -0.9
9 -0.99

>  <PUBCHEM_EFFECTIVE_ROTOR_COUNT>
11.2

>  <PUBCHEM_PHARMACOPHORE_FEATURES>
23
1 1 acceptor
1 10 cation
1 10 donor
1 11 cation
1 11 donor
1 12 cation
1 12 donor
1 2 acceptor
1 3 acceptor
1 4 acceptor
1 4 donor
1 5 acceptor
1 5 donor
1 6 acceptor
1 6 donor
1 7 acceptor
1 8 cation
1 8 donor
1 9 cation
1 9 donor
6 13 14 15 16 17 18 rings
6 3 19 20 21 22 23 rings
6 7 24 27 28 31 32 rings

>  <PUBCHEM_HEAVY_ATOM_COUNT>
33

>  <PUBCHEM_ATOM_DEF_STEREO_COUNT>
11

>  <PUBCHEM_ATOM_UDEF_STEREO_COUNT>
0

>  <PUBCHEM_BOND_DEF_STEREO_COUNT>
0

>  <PUBCHEM_BOND_UDEF_STEREO_COUNT>
0

>  <PUBCHEM_ISOTOPIC_ATOM_COUNT>
0

>  <PUBCHEM_COMPONENT_COUNT>
1

>  <PUBCHEM_CACTVS_TAUTO_COUNT>
1

>  <PUBCHEM_CONFORMER_ID>
0006BBDA00000001

>  <PUBCHEM_MMFF94_ENERGY>
66.9308

>  <PUBCHEM_FEATURE_SELFOVERLAP>
116.831

>  <PUBCHEM_SHAPE_FINGERPRINT>
10483366 6 18195545718372021006
11513181 2 18199751345209505676
12788726 201 17254262939952916304
13583140 156 17531796957920887043
14114211 80 18339377317372057013
14713325 29 18124884718259415326
14790565 3 18339935809597759712
15439362 3 18341337704297682780
15664445 248 17836942104621065286
17138139 8 17626633310555775831
19311894 1 18267307715074619732
21033648 144 18113615656208643789
21307412 95 17985297182344680710
22393880 68 17703783730368193313
22907989 373 17761210316342878589
23558518 356 17974845387402665400
23559900 14 17978231552704304251
238 59 18335685148967769493
283562 15 17687458379498253330
38695281 34 18411428297423495532
474 4 18340202999428250217
508706 21 18198920286560282334
6287921 2 18198618844059208909

>  <PUBCHEM_SHAPE_MULTIPOLES>
613.13
10.66
6.11
1.74
0.48
10.13
0.29
-11.42
3.78
0.03
0.39
-1.21
-0.05
-1.35

>  <PUBCHEM_SHAPE_SELFOVERLAP>
1251.417

>  <PUBCHEM_SHAPE_VOLUME>
350.2

>  <PUBCHEM_COORDINATE_TYPE>
2
5
10

$$$$
6032
 OpenBabel12232409013D

 69 71  0  0  1  0  0  0  0  0999 V2000
    2.6158   -0.8606    0.3488 O   0  0  0  0  0  0  0  0  0  0  0  0
   -2.1404   -0.3285    0.6532 O   0  0  0  0  0  0  0  0  0  0  0  0
    0.2751    0.6181   -0.5143 O   0  0  0  0  0  0  0  0  0  0  0  0
    3.2182    0.6506   -1.3734 O   0  0  0  0  0  0  0  0  0  0  0  0
   -3.6284    0.0878   -1.1448 O   0  0  0  0  0  0  0  0  0  0  0  0
    5.1483   -1.9865    0.2597 O   0  0  0  0  0  0  0  0  0  0  0  0
   -1.9784    2.4268    1.1601 O   0  0  0  0  0  0  0  0  0  0  0  0
    5.0873    2.7920    0.9699 O   0  0  0  0  0  0  0  0  0  0  0  0
   -4.7726    3.1470    1.3816 O   0  0  0  0  0  0  0  0  0  0  0  0
   -6.5056    0.8850    1.0174 O   0  0  0  0  0  0  0  0  0  0  0  0
    1.7377    2.9213   -1.6756 O   0  0  0  0  0  0  0  0  0  0  0  0
    2.3350   -3.7306    0.1661 N   0  0  0  0  0  0  0  0  0  0  0  0
   -2.5087   -3.2045    0.5095 N   0  0  0  0  0  0  0  0  0  0  0  0
    6.7496    0.4162    0.8898 N   0  0  0  0  0  0  0  0  0  0  0  0
   -5.3156   -2.0059   -1.9602 N   0  0  0  0  0  0  0  0  0  0  0  0
    1.3893   -1.4734   -0.0582 C   0  0  2  0  0  0  0  0  0  0  0  0
   -1.1390   -1.2016    0.1224 C   0  0  1  0  0  0  0  0  0  0  0  0
    0.2307   -0.5435    0.3201 C   0  0  2  0  0  0  0  0  0  0  0  0
    1.2777   -2.8343    0.6420 C   0  0  1  0  0  0  0  0  0  0  0  0
   -1.2282   -2.5646    0.8212 C   0  0  2  0  0  0  0  0  0  0  0  0
   -0.0847   -3.4853    0.3864 C   0  0  0  0  0  0  0  0  0  0  0  0
    3.4677   -0.6189   -0.7695 C   0  0  1  0  0  0  0  0  0  0  0  0
   -2.5788    0.6099   -0.3275 C   0  0  1  0  0  0  0  0  0  0  0  0
    4.9362   -0.7186   -0.3510 C   0  0  1  0  0  0  0  0  0  0  0  0
    5.3099    0.4224    0.6045 C   0  0  2  0  0  0  0  0  0  0  0  0
   -2.9935    1.9489    0.2847 C   0  0  1  0  0  0  0  0  0  0  0  0
    4.9158    1.7742   -0.0134 C   0  0  1  0  0  0  0  0  0  0  0  0
   -4.3101    1.8355    1.0505 C   0  0  2  0  0  0  0  0  0  0  0  0
    3.4556    1.7549   -0.4934 C   0  0  1  0  0  0  0  0  0  0  0  0
   -5.3760    1.1539    0.1901 C   0  0  1  0  0  0  0  0  0  0  0  0
   -4.8439   -0.1477   -0.4248 C   0  0  1  0  0  0  0  0  0  0  0  0
   -5.8337   -0.7622   -1.4107 C   0  0  0  0  0  0  0  0  0  0  0  0
    3.0876    3.0221   -1.2611 C   0  0  0  0  0  0  0  0  0  0  0  0
    1.3538   -1.6240   -1.1471 H   0  0  0  0  0  0  0  0  0  0  0  0
   -1.3201   -1.3556   -0.9526 H   0  0  0  0  0  0  0  0  0  0  0  0
    0.3417   -0.1823    1.3494 H   0  0  0  0  0  0  0  0  0  0  0  0
    1.4201   -2.6997    1.7221 H   0  0  0  0  0  0  0  0  0  0  0  0
   -1.1879   -2.4172    1.9080 H   0  0  0  0  0  0  0  0  0  0  0  0
   -0.1485   -4.4366    0.9317 H   0  0  0  0  0  0  0  0  0  0  0  0
   -0.1869   -3.7272   -0.6812 H   0  0  0  0  0  0  0  0  0  0  0  0
    3.3153   -1.3869   -1.5384 H   0  0  0  0  0  0  0  0  0  0  0  0
   -1.7904    0.8448   -1.0400 H   0  0  0  0  0  0  0  0  0  0  0  0
    5.5718   -0.6552   -1.2445 H   0  0  0  0  0  0  0  0  0  0  0  0
    4.8001    0.2832    1.5666 H   0  0  0  0  0  0  0  0  0  0  0  0
   -3.1163    2.6930   -0.5129 H   0  0  0  0  0  0  0  0  0  0  0  0
    5.5774    2.0009   -0.8593 H   0  0  0  0  0  0  0  0  0  0  0  0
   -4.1671    1.3097    2.0017 H   0  0  0  0  0  0  0  0  0  0  0  0
    2.7715    1.6753    0.3615 H   0  0  0  0  0  0  0  0  0  0  0  0
    2.2653   -4.6273    0.6457 H   0  0  0  0  0  0  0  0  0  0  0  0
    3.2428   -3.3435    0.4179 H   0  0  0  0  0  0  0  0  0  0  0  0
   -2.5778   -4.0923    1.0053 H   0  0  0  0  0  0  0  0  0  0  0  0
   -3.2715   -2.6239    0.8541 H   0  0  0  0  0  0  0  0  0  0  0  0
   -5.7058    1.8398   -0.5996 H   0  0  0  0  0  0  0  0  0  0  0  0
   -4.6571   -0.8800    0.3715 H   0  0  0  0  0  0  0  0  0  0  0  0
    0.3312    0.3242   -1.4396 H   0  0  0  0  0  0  0  0  0  0  0  0
   -6.7922   -0.9615   -0.9207 H   0  0  0  0  0  0  0  0  0  0  0  0
   -6.0167   -0.0699   -2.2408 H   0  0  0  0  0  0  0  0  0  0  0  0
    3.7055    3.1266   -2.1591 H   0  0  0  0  0  0  0  0  0  0  0  0
    3.2013    3.9142   -0.6377 H   0  0  0  0  0  0  0  0  0  0  0  0
    7.0043   -0.4653    1.3332 H   0  0  0  0  0  0  0  0  0  0  0  0
    6.9669    1.1522    1.5605 H   0  0  0  0  0  0  0  0  0  0  0  0
    5.0386   -2.6621   -0.4311 H   0  0  0  0  0  0  0  0  0  0  0  0
   -1.1508    2.4726    0.6516 H   0  0  0  0  0  0  0  0  0  0  0  0
    4.4850    2.5999    1.7087 H   0  0  0  0  0  0  0  0  0  0  0  0
   -4.8979    3.6423    0.5542 H   0  0  0  0  0  0  0  0  0  0  0  0
   -6.2322    0.2516    1.7027 H   0  0  0  0  0  0  0  0  0  0  0  0
   -5.9567   -2.3574   -2.6700 H   0  0  0  0  0  0  0  0  0  0  0  0
   -4.4306   -1.8300   -2.4342 H   0  0  0  0  0  0  0  0  0  0  0  0
    1.5254    3.7354   -2.1631 H   0  0  0  0  0  0  0  0  0  0  0  0
  1 16  1  0  0  0  0
  1 22  1  0  0  0  0
  2 17  1  0  0  0  0
  2 23  1  0  0  0  0
  3 18  1  0  0  0  0
  3 55  1  0  0  0  0
  4 22  1  0  0  0  0
  4 29  1  0  0  0  0
  5 23  1  0  0  0  0
  5 31  1  0  0  0  0
  6 24  1  0  0  0  0
  6 62  1  0  0  0  0
  7 26  1  0  0  0  0
  7 63  1  0  0  0  0
  8 27  1  0  0  0  0
  8 64  1  0  0  0  0
  9 28  1  0  0  0  0
  9 65  1  0  0  0  0
 10 30  1  0  0  0  0
 10 66  1  0  0  0  0
 11 33  1  0  0  0  0
 11 69  1  0  0  0  0
 12 19  1  0  0  0  0
 12 49  1  0  0  0  0
 12 50  1  0  0  0  0
 13 20  1  0  0  0  0
 13 51  1  0  0  0  0
 13 52  1  0  0  0  0
 14 25  1  0  0  0  0
 14 60  1  0  0  0  0
 14 61  1  0  0  0  0
 15 32  1  0  0  0  0
 15 67  1  0  0  0  0
 15 68  1  0  0  0  0
 16 18  1  0  0  0  0
 16 19  1  0  0  0  0
 16 34  1  6  0  0  0
 17 18  1  0  0  0  0
 17 20  1  0  0  0  0
 17 35  1  6  0  0  0
 18 36  1  1  0  0  0
 19 21  1  0  0  0  0
 19 37  1  1  0  0  0
 20 21  1  0  0  0  0
 20 38  1  1  0  0  0
 21 39  1  0  0  0  0
 21 40  1  0  0  0  0
 22 24  1  0  0  0  0
 22 41  1  6  0  0  0
 23 26  1  0  0  0  0
 23 42  1  6  0  0  0
 24 25  1  0  0  0  0
 24 43  1  6  0  0  0
 25 27  1  0  0  0  0
 25 44  1  1  0  0  0
 26 28  1  0  0  0  0
 26 45  1  6  0  0  0
 27 29  1  0  0  0  0
 27 46  1  6  0  0  0
 28 30  1  0  0  0  0
 28 47  1  1  0  0  0
 29 33  1  0  0  0  0
 29 48  1  1  0  0  0
 30 31  1  0  0  0  0
 30 53  1  6  0  0  0
 31 32  1  0  0  0  0
 31 54  1  1  0  0  0
 32 56  1  0  0  0  0
 32 57  1  0  0  0  0
 33 58  1  0  0  0  0
 33 59  1  0  0  0  0
M  END
>  <PUBCHEM_COMPOUND_CID>
6032

>  <PUBCHEM_CONFORMER_RMSD>
1

>  <PUBCHEM_CONFORMER_DIVERSEORDER>
1
59
46
21
98
102
116
58
67
72
110
45
115
75
56
79
81
15
44
69
78
111
29
105
106
17
38
101
80
39
108
70
42
24
85
104
89
35
23
2
60
84
103
49
26
113
52
66
25
11
82
77
18
61
13
7
37
54
87
53
99
33
114
88
71
31
40
65
96
43
94
100
14
19
90
95
83
76
64
6
30
3
57
97
10
107
109
32
12
51
55
86
73
74
41
47
48
112
63
34
4
9
5
50
16
92
8
68
22
27
36
20
93
28
62
91

>  <PUBCHEM_MMFF94_PARTIAL_CHARGES>
47
1 -0.56
10 -0.68
11 -0.68
12 -0.99
13 -0.99
14 -0.99
15 -0.99
16 0.28
17 0.28
18 0.28
19 0.27
2 -0.56
20 0.27
22 0.56
23 0.56
24 0.28
25 0.27
26 0.28
27 0.28
28 0.28
29 0.28
3 -0.68
30 0.28
31 0.28
32 0.27
33 0.28
4 -0.56
49 0.36
5 -0.56
50 0.36
51 0.36
52 0.36
55 0.4
6 -0.68
60 0.36
61 0.36
62 0.4
63 0.4
64 0.4
65 0.4
66 0.4
67 0.36
68 0.36
69 0.4
7 -0.68
8 -0.68
9 -0.68

>  <PUBCHEM_EFFECTIVE_ROTOR_COUNT>
9.6

>  <PUBCHEM_PHARMACOPHORE_FEATURES>
29
1 1 acceptor
1 10 acceptor
1 10 donor
1 11 acceptor
1 11 donor
1 12 cation
1 12 donor
1 13 cation
1 13 donor
1 14 cation
1 14 donor
1 15 cation
1 15 donor
1 2 acceptor
1 3 acceptor
1 3 donor
1 4 acceptor
1 5 acceptor
1 6 acceptor
1 6 donor
1 7 acceptor
1 7 donor
1 8 acceptor
1 8 donor
1 9 acceptor
1 9 donor
6 16 17 18 19 20 21 rings
6 4 22 24 25 27 29 rings
6 5 23 26 28 30 31 rings

>  <PUBCHEM_HEAVY_ATOM_COUNT>
33

>  <PUBCHEM_ATOM_DEF_STEREO_COUNT>
15

>  <PUBCHEM_ATOM_UDEF_STEREO_COUNT>
0

>  <PUBCHEM_BOND_DEF_STEREO_COUNT>
0

>  <PUBCHEM_BOND_UDEF_STEREO_COUNT>
0

>  <PUBCHEM_ISOTOPIC_ATOM_COUNT>
0

>  <PUBCHEM_COMPONENT_COUNT>
1

>  <PUBCHEM_CACTVS_TAUTO_COUNT>
1

>  <PUBCHEM_CONFORMER_ID>
0000179000000001

>  <PUBCHEM_MMFF94_ENERGY>
80.0992

>  <PUBCHEM_FEATURE_SELFOVERLAP>
147.312

>  <PUBCHEM_SHAPE_FINGERPRINT>
10439779 11 18410568471094159464
10595046 47 18272365361061502487
1100329 8 18336270119070635880
11135609 187 18335132142254191245
12107183 9 18333723625288521962
12166972 35 18412826872098764912
12236239 1 18202279178302593823
12633257 1 18114180865315246148
12788726 201 17686917415344977726
13140716 1 18188499076597275180
14251764 38 18339647853367284052
14394314 77 18341899588762696369
14767858 380 18340756157188825743
14784336 7 18270954782338412329
14790565 3 18268435642263899153
15461852 350 17775285019436260142
19319366 153 18341046337932525407
19377110 9 18412258411765333715
20028762 73 18341608205474963494
20511986 3 18271516512537017605
20715895 44 18409166619179806848
21033648 144 18186515535750364038
21033648 29 18130212866330310130
21033650 10 17630074639847982504
23559900 14 18410577314437167622
23569917 315 18335420175214193194
24771293 8 18412257342661445872
2838139 119 18411418388628300539
335352 9 18335138701054127238
3633792 109 18262503837588773765
3680242 22 18187926128118160330
474 4 18335425638268901905
5104073 3 18187642553134739298
513532 50 18130233666804365598
6371009 1 18335693962013892108
9981440 41 18335706065469233083

>  <PUBCHEM_SHAPE_MULTIPOLES>
594.64
14.97
4.23
1.27
1.97
1.25
-0.32
-6.42
0.24
-0.84
0.58
0.95
-0.45
-2.13

>  <PUBCHEM_SHAPE_SELFOVERLAP>
1223.849

>  <PUBCHEM_SHAPE_VOLUME>
335.4

>  <PUBCHEM_COORDINATE_TYPE>
2
5
10

$$$$
439369
 OpenBabel12232409013D

 81 83  0  0  1  0  0  0  0  0999 V2000
    0.3232   -0.6192   -0.1434 O   0  0  0  0  0  0  0  0  0  0  0  0
   -0.1279   -2.7523    0.7797 O   0  0  0  0  0  0  0  0  0  0  0  0
   -2.7172   -0.2925    0.5212 O   0  0  0  0  0  0  0  0  0  0  0  0
   -2.8175   -2.6312    1.9625 O   0  0  0  0  0  0  0  0  0  0  0  0
   -3.1273    0.3370   -1.7234 O   0  0  0  0  0  0  0  0  0  0  0  0
    2.1959   -2.6699   -0.8257 O   0  0  0  0  0  0  0  0  0  0  0  0
    3.9519    2.2661    1.1131 O   0  0  0  0  0  0  0  0  0  0  0  0
    4.7948   -1.6839   -1.4576 O   0  0  0  0  0  0  0  0  0  0  0  0
   -3.3553   -3.3606   -1.5534 O   0  0  0  0  0  0  0  0  0  0  0  0
   -4.6953    3.6652    0.1584 O   0  0  0  0  0  0  0  0  0  0  0  0
   -2.2216    3.8748   -1.2494 O   0  0  0  0  0  0  0  0  0  0  0  0
   -0.9678    0.4153   -3.4094 O   0  0  0  0  0  0  0  0  0  0  0  0
    1.3169    1.2659    1.8210 N   0  0  0  0  0  0  0  0  0  0  0  0
   -5.1447    0.9902    1.3328 N   0  0  0  0  0  0  0  0  0  0  0  0
    5.8510    0.1826    0.5071 N   0  0  0  0  0  0  0  0  0  0  0  0
    1.4295    3.5079    0.9658 N   0  0  0  0  0  0  0  0  0  0  0  0
    0.3358    3.0492    2.9123 N   0  0  0  0  0  0  0  0  0  0  0  0
    8.1148    0.2223    0.0519 N   0  0  0  0  0  0  0  0  0  0  0  0
    6.7027    0.3706   -1.7310 N   0  0  0  0  0  0  0  0  0  0  0  0
   -1.9382   -1.3906    0.0881 C   0  0  2  0  0  0  0  0  0  0  0  0
   -2.4838   -2.7215    0.5769 C   0  0  1  0  0  0  0  0  0  0  0  0
   -0.5403   -1.3769    0.6912 C   0  0  2  0  0  0  0  0  0  0  0  0
    1.6658   -0.6359    0.3500 C   0  0  2  0  0  0  0  0  0  0  0  0
   -1.2400   -3.5946    0.4041 C   0  0  2  0  0  0  0  0  0  0  0  0
    2.1005    0.7963    0.6647 C   0  0  2  0  0  0  0  0  0  0  0  0
    2.5633   -1.2923   -0.7007 C   0  0  1  0  0  0  0  0  0  0  0  0
    3.5843    0.8867    1.0302 C   0  0  1  0  0  0  0  0  0  0  0  0
    4.0455   -1.2075   -0.3365 C   0  0  2  0  0  0  0  0  0  0  0  0
    4.4766    0.2261   -0.0231 C   0  0  2  0  0  0  0  0  0  0  0  0
   -3.7051    0.0688   -0.4423 C   0  0  2  0  0  0  0  0  0  0  0  0
   -3.7030   -3.2124   -0.1871 C   0  0  0  0  0  0  0  0  0  0  0  0
   -4.5827    1.2466    0.0066 C   0  0  2  0  0  0  0  0  0  0  0  0
   -3.7981    2.5654   -0.0101 C   0  0  1  0  0  0  0  0  0  0  0  0
   -1.2007   -4.8623    1.2404 C   0  0  0  0  0  0  0  0  0  0  0  0
   -3.0888    2.7479   -1.3566 C   0  0  2  0  0  0  0  0  0  0  0  0
   -2.2891    1.4965   -1.7378 C   0  0  2  0  0  0  0  0  0  0  0  0
   -1.6958    1.5995   -3.1404 C   0  0  0  0  0  0  0  0  0  0  0  0
    1.0618    2.5320    1.8654 C   0  0  0  0  0  0  0  0  0  0  0  0
   -5.8784   -0.2654    1.3467 C   0  0  0  0  0  0  0  0  0  0  0  0
    6.8041    0.2562   -0.3624 C   0  0  0  0  0  0  0  0  0  0  0  0
   -1.8106   -1.3952   -1.0015 H   0  0  0  0  0  0  0  0  0  0  0  0
   -0.5501   -0.9437    1.6992 H   0  0  0  0  0  0  0  0  0  0  0  0
    1.7320   -1.2279    1.2752 H   0  0  0  0  0  0  0  0  0  0  0  0
   -1.0778   -3.8568   -0.6485 H   0  0  0  0  0  0  0  0  0  0  0  0
    1.8844    1.3943   -0.2294 H   0  0  0  0  0  0  0  0  0  0  0  0
    2.3807   -0.8412   -1.6844 H   0  0  0  0  0  0  0  0  0  0  0  0
    3.7588    0.4413    2.0184 H   0  0  0  0  0  0  0  0  0  0  0  0
    4.2585   -1.8816    0.5033 H   0  0  0  0  0  0  0  0  0  0  0  0
    4.4191    0.8510   -0.9231 H   0  0  0  0  0  0  0  0  0  0  0  0
   -4.3652   -0.7726   -0.6295 H   0  0  0  0  0  0  0  0  0  0  0  0
   -3.9826   -4.2075    0.1791 H   0  0  0  0  0  0  0  0  0  0  0  0
   -4.6078   -2.6189   -0.0706 H   0  0  0  0  0  0  0  0  0  0  0  0
   -5.4092    1.3555   -0.7109 H   0  0  0  0  0  0  0  0  0  0  0  0
   -3.0716    2.6105    0.8106 H   0  0  0  0  0  0  0  0  0  0  0  0
   -1.1853   -4.6385    2.3123 H   0  0  0  0  0  0  0  0  0  0  0  0
   -0.2783   -5.4167    1.0344 H   0  0  0  0  0  0  0  0  0  0  0  0
   -2.0506   -5.5148    1.0224 H   0  0  0  0  0  0  0  0  0  0  0  0
   -3.8353    2.9752   -2.1286 H   0  0  0  0  0  0  0  0  0  0  0  0
   -1.4618    1.3482   -1.0322 H   0  0  0  0  0  0  0  0  0  0  0  0
   -3.2295   -3.4691    2.2332 H   0  0  0  0  0  0  0  0  0  0  0  0
   -5.7755    1.7542    1.5751 H   0  0  0  0  0  0  0  0  0  0  0  0
    2.7844   -3.0680   -1.4898 H   0  0  0  0  0  0  0  0  0  0  0  0
    4.8958    2.3019    1.3444 H   0  0  0  0  0  0  0  0  0  0  0  0
    5.6924   -1.8867   -1.1453 H   0  0  0  0  0  0  0  0  0  0  0  0
   -2.4841    1.6776   -3.8958 H   0  0  0  0  0  0  0  0  0  0  0  0
   -1.0197    2.4525   -3.2458 H   0  0  0  0  0  0  0  0  0  0  0  0
   -3.4139   -2.4857   -1.9721 H   0  0  0  0  0  0  0  0  0  0  0  0
   -5.3600    3.6256   -0.5501 H   0  0  0  0  0  0  0  0  0  0  0  0
   -1.9245    4.1075   -2.1448 H   0  0  0  0  0  0  0  0  0  0  0  0
   -6.5181   -0.2855    2.2361 H   0  0  0  0  0  0  0  0  0  0  0  0
   -5.2125   -1.1241    1.4451 H   0  0  0  0  0  0  0  0  0  0  0  0
   -6.5358   -0.3868    0.4793 H   0  0  0  0  0  0  0  0  0  0  0  0
   -0.2536    0.3507   -2.7525 H   0  0  0  0  0  0  0  0  0  0  0  0
    1.1550    4.4735    1.1127 H   0  0  0  0  0  0  0  0  0  0  0  0
    2.0081    3.3279    0.1544 H   0  0  0  0  0  0  0  0  0  0  0  0
   -0.0075    2.4520    3.6567 H   0  0  0  0  0  0  0  0  0  0  0  0
    0.1205    4.0384    2.9712 H   0  0  0  0  0  0  0  0  0  0  0  0
    8.3511    0.1398    1.0348 H   0  0  0  0  0  0  0  0  0  0  0  0
    8.8818    0.2771   -0.6091 H   0  0  0  0  0  0  0  0  0  0  0  0
    7.5366    0.4269   -2.3062 H   0  0  0  0  0  0  0  0  0  0  0  0
    5.8197    0.3654   -2.2268 H   0  0  0  0  0  0  0  0  0  0  0  0
  1 22  1  0  0  0  0
  1 23  1  0  0  0  0
  2 22  1  0  0  0  0
  2 24  1  0  0  0  0
  3 20  1  0  0  0  0
  3 30  1  0  0  0  0
  4 60  1  0  0  0  0
  5 30  1  0  0  0  0
  5 36  1  0  0  0  0
  6 26  1  0  0  0  0
  6 62  1  0  0  0  0
  7 27  1  0  0  0  0
  7 63  1  0  0  0  0
  8 28  1  0  0  0  0
  8 64  1  0  0  0  0
  9 31  1  0  0  0  0
  9 67  1  0  0  0  0
 10 33  1  0  0  0  0
 10 68  1  0  0  0  0
 11 35  1  0  0  0  0
 11 69  1  0  0  0  0
 12 37  1  0  0  0  0
 12 73  1  0  0  0  0
 13 25  1  0  0  0  0
 13 38  2  0  0  0  0
 14 32  1  0  0  0  0
 14 39  1  0  0  0  0
 14 61  1  0  0  0  0
 15 29  1  0  0  0  0
 15 40  2  0  0  0  0
 16 38  1  0  0  0  0
 16 74  1  0  0  0  0
 16 75  1  0  0  0  0
 17 38  1  0  0  0  0
 17 76  1  0  0  0  0
 17 77  1  0  0  0  0
 18 40  1  0  0  0  0
 18 78  1  0  0  0  0
 18 79  1  0  0  0  0
 19 40  1  0  0  0  0
 19 80  1  0  0  0  0
 19 81  1  0  0  0  0
 20 21  1  0  0  0  0
 20 22  1  0  0  0  0
 20 41  1  6  0  0  0
 21  4  1  1  0  0  0
 21 24  1  0  0  0  0
 21 31  1  0  0  0  0
 22 42  1  1  0  0  0
 23 25  1  0  0  0  0
 23 26  1  0  0  0  0
 23 43  1  1  0  0  0
 24 34  1  0  0  0  0
 24 44  1  6  0  0  0
 25 27  1  0  0  0  0
 25 45  1  6  0  0  0
 26 28  1  0  0  0  0
 26 46  1  6  0  0  0
 27 29  1  0  0  0  0
 27 47  1  1  0  0  0
 28 29  1  0  0  0  0
 28 48  1  1  0  0  0
 29 49  1  6  0  0  0
 30 32  1  0  0  0  0
 30 50  1  6  0  0  0
 31 51  1  0  0  0  0
 31 52  1  0  0  0  0
 32 33  1  0  0  0  0
 32 53  1  6  0  0  0
 33 35  1  0  0  0  0
 33 54  1  1  0  0  0
 34 55  1  0  0  0  0
 34 56  1  0  0  0  0
 34 57  1  0  0  0  0
 35 36  1  0  0  0  0
 35 58  1  6  0  0  0
 36 37  1  0  0  0  0
 36 59  1  1  0  0  0
 37 65  1  0  0  0  0
 37 66  1  0  0  0  0
 39 70  1  0  0  0  0
 39 71  1  0  0  0  0
 39 72  1  0  0  0  0
M  END
>  <PUBCHEM_COMPOUND_CID>
439369

>  <PUBCHEM_CONFORMER_RMSD>
1.2

>  <PUBCHEM_CONFORMER_DIVERSEORDER>
1
61
70
28
56
20
71
60
22
48
11
62
8
59
68
26
32
38
31
66
24
53
35
37
69
58
16
52
23
65
49
41
17
45
14
12
19
25
67
63
42
36
46
55
10
44
40
54
51
6
43
9
50
2
29
5
33
15
39
4
3
34
30
18
64
21
57
13
27
47
7

>  <PUBCHEM_MMFF94_PARTIAL_CHARGES>
56
1 -0.56
10 -0.68
11 -0.68
12 -0.68
13 -0.7
14 -0.9
15 -0.7
16 -0.85
17 -0.85
18 -0.85
19 -0.85
2 -0.56
20 0.28
21 0.28
22 0.56
23 0.28
24 0.28
25 0.25
26 0.28
27 0.28
28 0.28
29 0.25
3 -0.56
30 0.56
31 0.28
32 0.27
33 0.28
35 0.28
36 0.28
37 0.28
38 0.55
39 0.27
4 -0.68
40 0.55
5 -0.56
6 -0.68
60 0.4
61 0.36
62 0.4
63 0.4
64 0.4
67 0.4
68 0.4
69 0.4
7 -0.68
73 0.4
74 0.4
75 0.4
76 0.4
77 0.4
78 0.4
79 0.4
8 -0.68
80 0.4
81 0.4
9 -0.68

>  <PUBCHEM_EFFECTIVE_ROTOR_COUNT>
12.4

>  <PUBCHEM_PHARMACOPHORE_FEATURES>
31
1 1 acceptor
1 10 acceptor
1 10 donor
1 11 acceptor
1 11 donor
1 12 acceptor
1 12 donor
1 14 cation
1 14 donor
1 16 donor
1 17 donor
1 18 donor
1 19 donor
1 2 acceptor
1 3 acceptor
1 4 acceptor
1 4 donor
1 5 acceptor
1 6 acceptor
1 6 donor
1 7 acceptor
1 7 donor
1 8 acceptor
1 8 donor
1 9 acceptor
1 9 donor
4 13 16 17 38 cation
4 15 18 19 40 cation
5 2 20 21 22 24 rings
6 23 25 26 27 28 29 rings
6 5 30 32 33 35 36 rings

>  <PUBCHEM_HEAVY_ATOM_COUNT>
40

>  <PUBCHEM_ATOM_DEF_STEREO_COUNT>
15

>  <PUBCHEM_ATOM_UDEF_STEREO_COUNT>
0

>  <PUBCHEM_BOND_DEF_STEREO_COUNT>
0

>  <PUBCHEM_BOND_UDEF_STEREO_COUNT>
0

>  <PUBCHEM_ISOTOPIC_ATOM_COUNT>
0

>  <PUBCHEM_COMPONENT_COUNT>
1

>  <PUBCHEM_CACTVS_TAUTO_COUNT>
4

>  <PUBCHEM_CONFORMER_ID>
0006B44900000001

>  <PUBCHEM_MMFF94_ENERGY>
137.6665

>  <PUBCHEM_FEATURE_SELFOVERLAP>
157.591

>  <PUBCHEM_SHAPE_FINGERPRINT>
10165383 225 18335702702789226089
10290309 65 18265335010367151982
10675989 125 17906739094288659258
11513181 2 17693095579655133743
11595378 159 17240472602813030130
12156800 1 17192975869821200961
131258 43 17612608017282884742
13402501 40 18412545409674289505
14279260 333 17987799584620170646
14415360 78 18263348240454225693
14856354 85 18407762551515965700
15230672 131 18189332382506743130
15274700 242 18054230929902296466
15324884 4 17689417709034515747
15351339 4 18127123078914632585
15361156 5 18267307710262584007
15975801 100 17822278055369437796
18608769 82 18337116747751930051
19319366 153 17979344266544693981
20764821 26 18337662126429367817
23559900 14 18130507526155356562
25019877 29 18342469140470936743
469060 322 16805612434640453157
50150288 127 16626308308446125681
508706 21 18338791337946153194
5252454 2 18189044309647154791
57527306 92 16988570053022029457
6700243 42 17690890956185098558

>  <PUBCHEM_SHAPE_MULTIPOLES>
717.88
13.43
5.12
2.23
21.54
2.13
0.92
-3.03
1.07
-5.95
-1.12
-0.81
-1.43
2.07

>  <PUBCHEM_SHAPE_SELFOVERLAP>
1488.539

>  <PUBCHEM_SHAPE_VOLUME>
402.2

>  <PUBCHEM_COORDINATE_TYPE>
2
5
10

$$$$
37768
 OpenBabel12232409013D

 83 85  0  0  1  0  0  0  0  0999 V2000
   -0.2481   -1.5435   -0.0318 O   0  0  0  0  0  0  0  0  0  0  0  0
   -1.0143    1.2262   -0.0189 O   0  0  0  0  0  0  0  0  0  0  0  0
    1.6187    0.4791    2.3746 O   0  0  0  0  0  0  0  0  0  0  0  0
   -0.7154   -3.6608    0.9232 O   0  0  0  0  0  0  0  0  0  0  0  0
   -1.9669    3.0045    1.2262 O   0  0  0  0  0  0  0  0  0  0  0  0
   -0.3871   -2.6479   -2.5716 O   0  0  0  0  0  0  0  0  0  0  0  0
   -3.5554    0.0746   -0.3225 O   0  0  0  0  0  0  0  0  0  0  0  0
   -4.3071   -3.3663    0.1595 O   0  0  0  0  0  0  0  0  0  0  0  0
   -5.0786    2.2906   -1.3926 O   0  0  0  0  0  0  0  0  0  0  0  0
   -3.4770    4.6550   -1.7036 O   0  0  0  0  0  0  0  0  0  0  0  0
    4.4438   -1.5561   -1.7036 O   0  0  0  0  0  0  0  0  0  0  0  0
   -1.6527   -3.7443    3.4833 O   0  0  0  0  0  0  0  0  0  0  0  0
    6.8243   -1.3551   -0.5031 O   0  0  0  0  0  0  0  0  0  0  0  0
    3.3036   -0.6804    0.1187 N   0  0  0  0  0  0  0  0  0  0  0  0
    2.5248    2.2729    0.1922 N   0  0  0  0  0  0  0  0  0  0  0  0
   -3.1638   -3.6565   -2.4905 N   0  0  0  0  0  0  0  0  0  0  0  0
   -0.5372    5.4195    1.3645 N   0  0  0  0  0  0  0  0  0  0  0  0
    6.2986    2.8934   -0.1960 N   0  0  0  0  0  0  0  0  0  0  0  0
    0.9202   -1.0504    0.6256 C   0  0  1  0  0  0  0  0  0  0  0  0
    0.2427    1.4238    0.6315 C   0  0  1  0  0  0  0  0  0  0  0  0
    1.9786   -0.7591   -0.4492 C   0  0  1  0  0  0  0  0  0  0  0  0
    0.5548    0.1783    1.4760 C   0  0  2  0  0  0  0  0  0  0  0  0
    1.3141    1.7359   -0.4302 C   0  0  2  0  0  0  0  0  0  0  0  0
    1.6412    0.4919   -1.2745 C   0  0  0  0  0  0  0  0  0  0  0  0
   -0.1857   -2.9586   -0.2015 C   0  0  1  0  0  0  0  0  0  0  0  0
   -2.0964    1.6431    0.8116 C   0  0  1  0  0  0  0  0  0  0  0  0
   -0.9272   -3.3750   -1.4736 C   0  0  1  0  0  0  0  0  0  0  0  0
   -2.4343   -3.1227   -1.3342 C   0  0  2  0  0  0  0  0  0  0  0  0
   -3.4606    1.4101    0.1602 C   0  0  1  0  0  0  0  0  0  0  0  0
   -2.9594   -3.7821   -0.0481 C   0  0  1  0  0  0  0  0  0  0  0  0
   -3.7099    2.3830   -0.9905 C   0  0  2  0  0  0  0  0  0  0  0  0
   -2.1001   -3.3866    1.1635 C   0  0  1  0  0  0  0  0  0  0  0  0
   -3.4360    3.8217   -0.5476 C   0  0  1  0  0  0  0  0  0  0  0  0
   -2.0719    3.9387    0.1457 C   0  0  1  0  0  0  0  0  0  0  0  0
    4.4357   -1.0908   -0.5659 C   0  0  0  0  0  0  0  0  0  0  0  0
   -2.4938   -4.1564    2.4216 C   0  0  0  0  0  0  0  0  0  0  0  0
   -1.8458    5.3284    0.7348 C   0  0  0  0  0  0  0  0  0  0  0  0
    5.7132   -0.8806    0.2389 C   0  0  2  0  0  0  0  0  0  0  0  0
    5.9422    0.5901    0.6082 C   0  0  0  0  0  0  0  0  0  0  0  0
    6.0680    1.5124   -0.6101 C   0  0  0  0  0  0  0  0  0  0  0  0
    1.3060   -1.8138    1.3174 H   0  0  0  0  0  0  0  0  0  0  0  0
    0.2011    2.2954    1.2966 H   0  0  0  0  0  0  0  0  0  0  0  0
    2.0009   -1.5892   -1.1650 H   0  0  0  0  0  0  0  0  0  0  0  0
   -0.3098   -0.0930    2.0906 H   0  0  0  0  0  0  0  0  0  0  0  0
    0.9222    2.5018   -1.1112 H   0  0  0  0  0  0  0  0  0  0  0  0
    0.7665    0.2667   -1.8997 H   0  0  0  0  0  0  0  0  0  0  0  0
    2.4566    0.7186   -1.9739 H   0  0  0  0  0  0  0  0  0  0  0  0
    0.8563   -3.2821   -0.3155 H   0  0  0  0  0  0  0  0  0  0  0  0
   -2.0762    1.0334    1.7214 H   0  0  0  0  0  0  0  0  0  0  0  0
    3.3970   -0.2830    1.0483 H   0  0  0  0  0  0  0  0  0  0  0  0
   -0.7599   -4.4451   -1.6543 H   0  0  0  0  0  0  0  0  0  0  0  0
   -2.6251   -2.0454   -1.3213 H   0  0  0  0  0  0  0  0  0  0  0  0
   -4.2503    1.5445    0.9105 H   0  0  0  0  0  0  0  0  0  0  0  0
    2.2996    3.1249    0.7040 H   0  0  0  0  0  0  0  0  0  0  0  0
    3.1901    2.5414   -0.5312 H   0  0  0  0  0  0  0  0  0  0  0  0
   -2.9521   -4.8736   -0.1628 H   0  0  0  0  0  0  0  0  0  0  0  0
   -3.1116    2.1137   -1.8688 H   0  0  0  0  0  0  0  0  0  0  0  0
   -2.2084   -2.3168    1.3844 H   0  0  0  0  0  0  0  0  0  0  0  0
    1.3290    1.2160    2.9388 H   0  0  0  0  0  0  0  0  0  0  0  0
   -4.2341    4.1580    0.1255 H   0  0  0  0  0  0  0  0  0  0  0  0
   -1.2718    3.7447   -0.5813 H   0  0  0  0  0  0  0  0  0  0  0  0
   -3.5346   -3.9635    2.6986 H   0  0  0  0  0  0  0  0  0  0  0  0
   -2.3500   -5.2328    2.2804 H   0  0  0  0  0  0  0  0  0  0  0  0
   -1.9200    6.0939   -0.0444 H   0  0  0  0  0  0  0  0  0  0  0  0
   -2.6075    5.5441    1.4931 H   0  0  0  0  0  0  0  0  0  0  0  0
   -4.1545   -3.4350   -2.3998 H   0  0  0  0  0  0  0  0  0  0  0  0
   -2.8396   -3.1950   -3.3394 H   0  0  0  0  0  0  0  0  0  0  0  0
    5.6351   -1.4860    1.1497 H   0  0  0  0  0  0  0  0  0  0  0  0
    0.5562   -2.8739   -2.6384 H   0  0  0  0  0  0  0  0  0  0  0  0
   -3.3704   -0.5141    0.4283 H   0  0  0  0  0  0  0  0  0  0  0  0
   -4.3113   -2.4018    0.2774 H   0  0  0  0  0  0  0  0  0  0  0  0
   -5.6353    2.5131   -0.6270 H   0  0  0  0  0  0  0  0  0  0  0  0
   -2.7520    4.3864   -2.2934 H   0  0  0  0  0  0  0  0  0  0  0  0
    6.8726    0.6593    1.1877 H   0  0  0  0  0  0  0  0  0  0  0  0
    5.1400    0.9504    1.2624 H   0  0  0  0  0  0  0  0  0  0  0  0
   -0.4631    4.7238    2.1057 H   0  0  0  0  0  0  0  0  0  0  0  0
   -0.4383    6.3289    1.8135 H   0  0  0  0  0  0  0  0  0  0  0  0
   -1.9182   -4.2477    4.2718 H   0  0  0  0  0  0  0  0  0  0  0  0
    7.5985   -1.3396    0.0851 H   0  0  0  0  0  0  0  0  0  0  0  0
    5.1634    1.4714   -1.2245 H   0  0  0  0  0  0  0  0  0  0  0  0
    6.9062    1.1938   -1.2386 H   0  0  0  0  0  0  0  0  0  0  0  0
    6.3280    3.4922   -1.0202 H   0  0  0  0  0  0  0  0  0  0  0  0
    5.5117    3.2180    0.3648 H   0  0  0  0  0  0  0  0  0  0  0  0
  1 19  1  0  0  0  0
  1 25  1  0  0  0  0
  2 20  1  0  0  0  0
  2 26  1  0  0  0  0
  3 22  1  0  0  0  0
  3 59  1  0  0  0  0
  4 25  1  0  0  0  0
  4 32  1  0  0  0  0
  5 26  1  0  0  0  0
  5 34  1  0  0  0  0
  6 27  1  0  0  0  0
  6 69  1  0  0  0  0
  7 29  1  0  0  0  0
  7 70  1  0  0  0  0
  8 30  1  0  0  0  0
  8 71  1  0  0  0  0
  9 31  1  0  0  0  0
  9 72  1  0  0  0  0
 10 33  1  0  0  0  0
 10 73  1  0  0  0  0
 11 35  2  0  0  0  0
 12 36  1  0  0  0  0
 12 78  1  0  0  0  0
 13 38  1  0  0  0  0
 13 79  1  0  0  0  0
 14 21  1  0  0  0  0
 14 35  1  0  0  0  0
 14 50  1  0  0  0  0
 15 23  1  0  0  0  0
 15 54  1  0  0  0  0
 15 55  1  0  0  0  0
 16 28  1  0  0  0  0
 16 66  1  0  0  0  0
 16 67  1  0  0  0  0
 17 37  1  0  0  0  0
 17 76  1  0  0  0  0
 17 77  1  0  0  0  0
 18 40  1  0  0  0  0
 18 82  1  0  0  0  0
 18 83  1  0  0  0  0
 19 21  1  0  0  0  0
 19 22  1  0  0  0  0
 19 41  1  1  0  0  0
 20 22  1  0  0  0  0
 20 23  1  0  0  0  0
 20 42  1  1  0  0  0
 21 24  1  0  0  0  0
 21 43  1  6  0  0  0
 22 44  1  1  0  0  0
 23 24  1  0  0  0  0
 23 45  1  6  0  0  0
 24 46  1  0  0  0  0
 24 47  1  0  0  0  0
 25 27  1  0  0  0  0
 25 48  1  6  0  0  0
 26 29  1  0  0  0  0
 26 49  1  1  0  0  0
 27 28  1  0  0  0  0
 27 51  1  6  0  0  0
 28 30  1  0  0  0  0
 28 52  1  1  0  0  0
 29 31  1  0  0  0  0
 29 53  1  1  0  0  0
 30 32  1  0  0  0  0
 30 56  1  6  0  0  0
 31 33  1  0  0  0  0
 31 57  1  6  0  0  0
 32 36  1  0  0  0  0
 32 58  1  1  0  0  0
 33 34  1  0  0  0  0
 33 60  1  1  0  0  0
 34 37  1  0  0  0  0
 34 61  1  6  0  0  0
 35 38  1  0  0  0  0
 36 62  1  0  0  0  0
 36 63  1  0  0  0  0
 37 64  1  0  0  0  0
 37 65  1  0  0  0  0
 38 39  1  0  0  0  0
 38 68  1  1  0  0  0
 39 40  1  0  0  0  0
 39 74  1  0  0  0  0
 39 75  1  0  0  0  0
 40 80  1  0  0  0  0
 40 81  1  0  0  0  0
M  END
>  <PUBCHEM_COMPOUND_CID>
37768

>  <PUBCHEM_CONFORMER_RMSD>
1.2

>  <PUBCHEM_CONFORMER_DIVERSEORDER>
1
19
17
27
25
16
24
20
14
28
10
11
18
8
23
26
4
21
6
22
2
7
3
13
12
9
5
15

>  <PUBCHEM_MMFF94_PARTIAL_CHARGES>
55
1 -0.56
10 -0.68
11 -0.57
12 -0.68
13 -0.68
14 -0.73
15 -0.99
16 -0.99
17 -0.99
18 -0.99
19 0.28
2 -0.56
20 0.28
21 0.3
22 0.28
23 0.27
25 0.56
26 0.56
27 0.28
28 0.27
29 0.28
3 -0.68
30 0.28
31 0.28
32 0.28
33 0.28
34 0.28
35 0.57
36 0.28
37 0.27
38 0.34
4 -0.56
40 0.27
5 -0.56
50 0.37
54 0.36
55 0.36
59 0.4
6 -0.68
66 0.36
67 0.36
69 0.4
7 -0.68
70 0.4
71 0.4
72 0.4
73 0.4
76 0.36
77 0.36
78 0.4
79 0.4
8 -0.68
82 0.36
83 0.36
9 -0.68

>  <PUBCHEM_EFFECTIVE_ROTOR_COUNT>
14.6

>  <PUBCHEM_PHARMACOPHORE_FEATURES>
33
1 1 acceptor
1 10 acceptor
1 10 donor
1 11 acceptor
1 12 acceptor
1 12 donor
1 13 acceptor
1 13 donor
1 14 donor
1 15 cation
1 15 donor
1 16 cation
1 16 donor
1 17 cation
1 17 donor
1 18 cation
1 18 donor
1 2 acceptor
1 3 acceptor
1 3 donor
1 4 acceptor
1 5 acceptor
1 6 acceptor
1 6 donor
1 7 acceptor
1 7 donor
1 8 acceptor
1 8 donor
1 9 acceptor
1 9 donor
6 19 20 21 22 23 24 rings
6 4 25 27 28 30 32 rings
6 5 26 29 31 33 34 rings

>  <PUBCHEM_HEAVY_ATOM_COUNT>
40

>  <PUBCHEM_ATOM_DEF_STEREO_COUNT>
16

>  <PUBCHEM_ATOM_UDEF_STEREO_COUNT>
0

>  <PUBCHEM_BOND_DEF_STEREO_COUNT>
0

>  <PUBCHEM_BOND_UDEF_STEREO_COUNT>
0

>  <PUBCHEM_ISOTOPIC_ATOM_COUNT>
0

>  <PUBCHEM_COMPONENT_COUNT>
1

>  <PUBCHEM_CACTVS_TAUTO_COUNT>
2

>  <PUBCHEM_CONFORMER_ID>
0000938800000001

>  <PUBCHEM_MMFF94_ENERGY>
86.011

>  <PUBCHEM_FEATURE_SELFOVERLAP>
167.635

>  <PUBCHEM_SHAPE_FINGERPRINT>
11578080 2 17344902130139571610
11991303 11 18335140851888159190
12156800 1 17982695711178108235
12160290 23 18125753203226730050
12422481 6 17911558464001546890
12788726 201 18264193863452924978
13150687 139 18196372507507429470
13757389 114 18267603316520715652
14790565 3 18122906417641577388
15200665 1 18340765958119578714
15276724 80 18268713981724573102
15463212 79 18189049811463266265
15484559 13 17835240039341220982
15664445 248 16612237733417051374
15775530 1 17773294928811890072
16993438 75 18412546500611956079
18365409 1 18411133598485191501
20587220 46 14538547288745054837
23576562 1 18336281093872738044
3493558 16 18263367044037176028
376196 1 18051978017470800830
38695281 34 18121218675624439004
4058900 60 17903362511185840148
5171179 24 17771893098446038576
563151 97 17904763280215098220
79837 15 18265628592993391760

>  <PUBCHEM_SHAPE_MULTIPOLES>
721.98
10.99
8.01
2.02
21.52
3.56
0.58
2.96
-2.83
-11.68
1.14
-1.51
-2.12
1.37

>  <PUBCHEM_SHAPE_SELFOVERLAP>
1478.064

>  <PUBCHEM_SHAPE_VOLUME>
408.6

>  <PUBCHEM_COORDINATE_TYPE>
2
5
10

$$$$
