ZINC12824017


 17 18  0  0  0  0  0  0  0  0999 V2000
    3.1171    0.3361    0.1187 C   0  0  0  0  0
    1.8707    0.9200    0.3530 C   0  0  0  0  0
    2.0542   -1.6804   -0.6816 C   0  0  0  0  0
   -0.5357   -1.6598   -0.6690 C   0  0  0  0  0
    0.7754   -1.1163   -0.4550 C   0  0  0  0  0
    3.2104   -0.9503   -0.3932 C   0  0  0  0  0
    0.7073    0.1814    0.0612 C   0  0  0  0  0
   -1.5396   -0.7878   -0.3204 C   0  0  0  0  0
   -2.9521   -0.9769   -0.3933 C   0  0  0  0  0
   -5.8055    1.0570    0.4205 C   0  0  0  0  0
   -3.7639    0.0825    0.0294 N   0  0  0  0  0
    4.4860   -1.5296   -0.6262 N   0  0  0  0  0
    5.5144   -0.8610   -0.3624 O   0  0  0  0  0
   -3.5001   -2.0200   -0.8293 O   0  0  0  0  0
    4.5494   -2.6940   -1.0890 O   0  0  0  0  0
   -5.1567   -0.1174   -0.0477 O   0  0  0  0  0
   -0.9273    0.6907    0.2663 S   0  0  0  0  0
  1  6  1  0  0  0
  2  7  1  0  0  0
  3  5  1  0  0  0
  4  5  1  0  0  0
  6 12  1  0  0  0
  7 17  1  0  0  0
  8  9  1  0  0  0
  8 17  1  0  0  0
  9 11  1  0  0  0
 10 16  1  0  0  0
 11 16  1  0  0  0
 12 13  1  0  0  0
  1  2  2  0  0  0
  3  6  2  0  0  0
  4  8  2  0  0  0
  5  7  2  0  0  0
  9 14  2  0  0  0
 12 15  2  0  0  0
M  CHG  2  12   1  13  -1
M  END
> <rmsd>
0.575637519

$$$$
ZINC72416334


 19 20  0  0  0  0  0  0  0  0999 V2000
    2.4264   -1.3399    0.4127 C   0  0  0  0  0
    1.0815   -1.1677    0.0954 C   0  0  0  0  0
    3.3082   -0.2869    0.2047 C   0  0  0  0  0
    2.8008    0.8937   -0.3131 C   0  0  0  0  0
    0.6534    0.0536   -0.4218 C   0  0  0  0  0
    0.0958   -2.2477    0.2936 C   0  0  0  0  0
   -1.5347   -0.6692   -0.5787 C   0  0  0  0  0
    4.7339   -0.4456    0.5332 C   0  0  0  0  0
    3.7041    2.0586   -0.5573 C   0  0  0  0  0
   -5.4316    1.2276   -0.5052 C   0  0  0  0  0
   -2.9864   -0.5009   -0.9145 C   0  0  0  0  0
   -3.8407   -0.2896    0.3253 C   0  0  0  0  0
    1.4998    1.0888   -0.6301 N   0  0  0  0  0
   -0.6894    0.2958   -0.7633 N   0  0  0  0  0
   -1.1966   -1.9080   -0.0723 N   0  0  0  0  0
    5.5340   -0.8860   -0.3750 O   0  0  0  0  0
    0.4241   -3.3384    0.7446 O   0  0  0  0  0
    5.1350   -0.1393    1.7181 O   0  0  0  0  0
   -5.1978   -0.0991   -0.0530 O   0  0  0  0  0
  1  2  1  0  0  0
  2  6  1  0  0  0
  3  4  1  0  0  0
  3  8  1  0  0  0
  5 13  1  0  0  0
  5 14  1  0  0  0
  6 15  1  0  0  0
  7 15  1  0  0  0
  8 16  1  0  0  0
  9  4  1  0  0  0
 10 19  1  0  0  0
 11  7  1  0  0  0
 11 12  1  0  0  0
 12 19  1  0  0  0
  1  3  2  0  0  0
  2  5  2  0  0  0
  4 13  2  0  0  0
  6 17  2  0  0  0
  7 14  2  0  0  0
  8 18  2  0  0  0
M  CHG  1  16  -1
M  END
> <rmsd>
0.501555562

$$$$
ZINC20436484


 18 19  0  0  0  0  0  0  0  0999 V2000
    2.2551    1.3937    0.0620 C   0  0  0  0  0
    3.4303    0.6551   -0.0753 C   0  0  0  0  0
   -0.4047    2.8989    0.3494 C   0  0  0  0  0
   -1.8106    3.0540    0.4000 C   0  0  0  0  0
    2.1298   -1.3595   -0.3706 C   0  0  0  0  0
    1.0172    0.7558   -0.0170 C   0  0  0  0  0
    3.3678   -0.7215   -0.2916 C   0  0  0  0  0
    0.9545   -0.6208   -0.2333 C   0  0  0  0  0
   -0.1757    1.5601    0.1325 C   0  0  0  0  0
   -2.3405    1.7990    0.2102 C   0  0  0  0  0
   -3.6868    1.3412    0.1614 C   0  0  0  0  0
   -4.0334    0.0827   -0.0333 N   0  0  0  0  0
    4.5644   -1.4727   -0.4325 N   0  0  0  0  0
    5.6674   -0.8788   -0.3593 O   0  0  0  0  0
    4.4864   -2.7100   -0.6261 O   0  0  0  0  0
   -1.3506    0.8827    0.0462 O   0  0  0  0  0
   -5.4247   -0.0466   -0.0298 O   0  0  0  0  0
   -0.5525   -1.4640   -0.3368 Cl  0  0  0  0  0
  1  2  1  0  0  0
  3  4  1  0  0  0
  5  7  1  0  0  0
  6  8  1  0  0  0
  6  9  1  0  0  0
  7 13  1  0  0  0
  8 18  1  0  0  0
  9 16  1  0  0  0
 10 11  1  0  0  0
 10 16  1  0  0  0
 12 17  1  0  0  0
 13 14  1  0  0  0
  1  6  2  0  0  0
  2  7  2  0  0  0
  3  9  2  0  0  0
  4 10  2  0  0  0
  5  8  2  0  0  0
 11 12  2  0  0  0
 13 15  2  0  0  0
M  CHG  2  13   1  14  -1
M  END
> <rmsd>
0.556300461

$$$$
ZINC39277244


 18 19  0  0  0  0  0  0  0  0999 V2000
    2.0523    0.8898    0.2642 C   0  0  0  0  0
    3.3087    0.3069    0.0562 C   0  0  0  0  0
    2.2939   -1.7876   -0.6642 C   0  0  0  0  0
    0.9052    0.1214    0.0035 C   0  0  0  0  0
    1.0532   -1.1863   -0.4500 C   0  0  0  0  0
    3.4250   -1.0082   -0.3999 C   0  0  0  0  0
   -1.0782   -0.6291   -0.2466 C   0  0  0  0  0
   -4.8880    0.8248    0.2751 C   0  0  0  0  0
   -6.6780    2.2868    0.7964 C   0  0  0  0  0
   -3.3811    0.7721    0.2496 C   0  0  0  0  0
   -0.4256    0.4497    0.1239 N   0  0  0  0  0
   -0.2313   -1.6421   -0.6015 N   0  0  0  0  0
    4.7166   -1.5673   -0.5987 N   0  0  0  0  0
    5.7261   -0.8628   -0.3588 O   0  0  0  0  0
   -5.6497   -0.0799   -0.0362 O   0  0  0  0  0
    4.8096   -2.7490   -1.0081 O   0  0  0  0  0
   -5.2664    2.0658    0.7106 O   0  0  0  0  0
   -2.7852   -0.8491   -0.3147 S   0  0  0  0  0
  1  4  1  0  0  0
  2  6  1  0  0  0
  3  5  1  0  0  0
  4 11  1  0  0  0
  5 12  1  0  0  0
  6 13  1  0  0  0
  7 12  1  0  0  0
  7 18  1  0  0  0
  8 17  1  0  0  0
  9 17  1  0  0  0
 10  8  1  0  0  0
 10 18  1  0  0  0
 13 14  1  0  0  0
  1  2  2  0  0  0
  3  6  2  0  0  0
  4  5  2  0  0  0
  7 11  2  0  0  0
  8 15  2  0  0  0
 13 16  2  0  0  0
M  CHG  2  13   1  14  -1
M  END
> <rmsd>
0.518212378

$$$$
ZINC91947730


 17 18  0  0  0  0  0  0  0  0999 V2000
    1.9561   -1.4477   -0.3093 C   0  0  0  0  0
    1.3422    0.7752   -0.0194 C   0  0  0  0  0
    0.8873   -0.5175   -0.1586 C   0  0  0  0  0
    3.1873   -0.8303   -0.2798 C   0  0  0  0  0
   -5.1340    0.9592    0.7428 C   0  0  0  0  0
   -3.0870    0.5262    0.1671 C   0  0  0  0  0
    4.5234   -1.5670   -0.4170 C   0  0  0  0  0
   -6.2865    1.6178    1.3830 C   0  0  0  0  0
   -3.3896    2.4896    1.7057 C   0  0  0  0  0
   -1.5901    0.6329    0.0697 C   0  0  0  0  0
   -5.1605   -0.0856   -0.0536 N   0  0  0  0  0
   -3.8583   -0.3610   -0.4199 N   0  0  0  0  0
   -3.8485    1.3772    0.9092 N   0  0  0  0  0
    5.5623   -0.8555   -0.3695 O   0  0  0  0  0
    4.4608   -2.8168   -0.5650 O   0  0  0  0  0
    3.0516    0.8638   -0.0708 S   0  0  0  0  0
   -0.8030   -0.9830   -0.1534 S   0  0  0  0  0
  1  3  1  0  0  0
  2 16  1  0  0  0
  3 17  1  0  0  0
  4  7  1  0  0  0
  4 16  1  0  0  0
  5 13  1  0  0  0
  6 13  1  0  0  0
  7 14  1  0  0  0
  8  5  1  0  0  0
  9 13  1  0  0  0
 10  6  1  0  0  0
 10 17  1  0  0  0
 11 12  1  0  0  0
  1  4  2  0  0  0
  2  3  2  0  0  0
  5 11  2  0  0  0
  6 12  2  0  0  0
  7 15  2  0  0  0
M  CHG  1  14  -1
M  END
> <rmsd>
0.593126416

$$$$
ZINC91363225


 20 21  0  0  0  0  0  0  0  0999 V2000
    2.0910    1.3504    0.0081 C   0  0  0  0  0
    3.2791    0.6312   -0.1201 C   0  0  0  0  0
   -3.2060   -0.5202    1.1673 C   0  0  0  0  0
   -3.4738    1.5920    0.0485 C   0  0  0  0  0
    2.0191   -1.4254   -0.2609 C   0  0  0  0  0
   -4.4632   -0.8664    0.6990 C   0  0  0  0  0
   -4.7189    1.1511   -0.3699 C   0  0  0  0  0
    0.8669    0.6817    0.0019 C   0  0  0  0  0
   -2.7091    0.7343    0.8314 C   0  0  0  0  0
    3.2432   -0.7567   -0.2547 C   0  0  0  0  0
    0.8309   -0.7062   -0.1327 C   0  0  0  0  0
   -0.3702    1.4346    0.1361 C   0  0  0  0  0
   -1.4687    2.3778    2.2481 C   0  0  0  0  0
   -1.3378    1.1659    1.3179 C   0  0  0  0  0
   -5.2352   -0.0602   -0.0637 N   0  0  0  0  0
    4.4523   -1.4892   -0.3862 N   0  0  0  0  0
    5.5431   -0.8688   -0.3791 O   0  0  0  0  0
   -0.6626    2.3027   -0.7112 O   0  0  0  0  0
    4.3975   -2.7372   -0.5060 O   0  0  0  0  0
   -0.3400   -1.3591   -0.1374 F   0  0  0  0  0
  1  8  1  0  0  0
  2 10  1  0  0  0
  3  9  1  0  0  0
  4  7  1  0  0  0
  5 11  1  0  0  0
  6 15  1  0  0  0
  8 12  1  0  0  0
 10 16  1  0  0  0
 11 20  1  0  0  0
 13 14  1  0  0  0
 14  9  1  0  0  0
 14 12  1  0  0  0
 16 17  1  0  0  0
  1  2  2  0  0  0
  3  6  2  0  0  0
  4  9  2  0  0  0
  5 10  2  0  0  0
  7 15  2  0  0  0
  8 11  2  0  0  0
 12 18  2  0  0  0
 16 19  2  0  0  0
M  CHG  2  16   1  17  -1
M  END
> <rmsd>
0.520243227

$$$$
ZINC93436125


 20 21  0  0  0  0  0  0  0  0999 V2000
    2.1505    1.3944    0.3403 C   0  0  0  0  0
    3.3048    0.6442    0.1165 C   0  0  0  0  0
    1.9496   -1.2481   -0.5316 C   0  0  0  0  0
   -4.0759    0.0107    0.8042 C   0  0  0  0  0
    0.8956    0.8234    0.1282 C   0  0  0  0  0
    0.7952   -0.4978   -0.3077 C   0  0  0  0  0
   -3.5798    1.3268    0.8625 C   0  0  0  0  0
    3.2045   -0.6770   -0.3194 C   0  0  0  0  0
   -4.3910    2.0375    0.0119 C   0  0  0  0  0
   -0.2933    1.6292    0.3716 C   0  0  0  0  0
   -0.5367   -1.1335   -0.5412 C   0  0  0  0  0
   -2.4230    1.8332    1.6746 C   0  0  0  0  0
   -5.1213   -0.1105   -0.0184 N   0  0  0  0  0
   -5.2888    1.1388   -0.4846 N   0  0  0  0  0
   -4.4345    3.3299   -0.3647 N   0  0  0  0  0
   -1.1895    1.1596    1.3372 N   0  0  0  0  0
    4.3797   -1.4406   -0.5471 N   0  0  0  0  0
    5.4986   -0.9078   -0.3502 O   0  0  0  0  0
   -0.4905    2.6710   -0.2765 O   0  0  0  0  0
    4.2674   -2.6274   -0.9390 O   0  0  0  0  0
  1  5  1  0  0  0
  2  8  1  0  0  0
  3  6  1  0  0  0
  4  7  1  0  0  0
  5 10  1  0  0  0
  8 17  1  0  0  0
  9 14  1  0  0  0
  9 15  1  0  0  0
 10 16  1  0  0  0
 11  6  1  0  0  0
 12  7  1  0  0  0
 12 16  1  0  0  0
 14 13  1  0  0  0
 17 18  1  0  0  0
  1  2  2  0  0  0
  3  8  2  0  0  0
  4 13  2  0  0  0
  5  6  2  0  0  0
  7  9  2  0  0  0
 10 19  2  0  0  0
 17 20  2  0  0  0
M  CHG  2  17   1  18  -1
M  END
> <rmsd>
0.572571158

$$$$
ZINC94348579


 20 21  0  0  0  0  0  0  0  0999 V2000
   -3.4714    1.4837   -0.6254 C   0  0  0  0  0
   -3.9911    0.9308    1.6568 C   0  0  0  0  0
    2.0424   -1.4705    0.1197 C   0  0  0  0  0
    3.2044    0.5996   -0.3288 C   0  0  0  0  0
   -4.5098    0.6499   -1.0074 C   0  0  0  0  0
   -5.0065    0.1218    1.1726 C   0  0  0  0  0
    3.2280   -0.7817   -0.1363 C   0  0  0  0  0
   -3.2135    1.6215    0.7339 C   0  0  0  0  0
    0.8097    0.6032   -0.0092 C   0  0  0  0  0
    0.8332   -0.7782    0.1831 C   0  0  0  0  0
    1.9953    1.2921   -0.2652 C   0  0  0  0  0
    4.5033   -1.5127   -0.2034 C   0  0  0  0  0
   -2.0989    2.5122    1.2037 C   0  0  0  0  0
   -0.7673    1.7777    1.3286 C   0  0  0  0  0
   -5.2869   -0.0371   -0.1403 N   0  0  0  0  0
    5.5841   -0.8536   -0.4416 O   0  0  0  0  0
    4.4976   -2.7880   -0.0223 O   0  0  0  0  0
   -0.3703    1.2788    0.0521 O   0  0  0  0  0
   -0.3028   -1.4454    0.4287 F   0  0  0  0  0
    1.9791    2.6192   -0.4501 F   0  0  0  0  0
  1  5  1  0  0  0
  2  8  1  0  0  0
  3  7  1  0  0  0
  4 11  1  0  0  0
  6 15  1  0  0  0
  7 12  1  0  0  0
  9 10  1  0  0  0
  9 18  1  0  0  0
 10 19  1  0  0  0
 11 20  1  0  0  0
 12 16  1  0  0  0
 13  8  1  0  0  0
 13 14  1  0  0  0
 14 18  1  0  0  0
  1  8  2  0  0  0
  2  6  2  0  0  0
  3 10  2  0  0  0
  4  7  2  0  0  0
  5 15  2  0  0  0
  9 11  2  0  0  0
 12 17  2  0  0  0
M  CHG  1  16  -1
M  END
> <rmsd>
0.558554351

$$$$
ZINC91947609


 18 20  0  0  0  0  0  0  0  0999 V2000
    1.8960   -1.3742   -0.2900 C   0  0  0  0  0
    1.3498    0.8475    0.1203 C   0  0  0  0  0
    0.8566   -0.4241   -0.0725 C   0  0  0  0  0
    3.1442   -0.7922   -0.2555 C   0  0  0  0  0
   -5.1001    0.8980    0.7899 C   0  0  0  0  0
   -3.0803    0.7085    0.3845 C   0  0  0  0  0
    4.4565   -1.5568   -0.4555 C   0  0  0  0  0
   -7.5217    1.8470    0.4787 C   0  0  0  0  0
   -6.7590    2.8697    1.2611 C   0  0  0  0  0
   -6.3924    1.4091    1.3815 C   0  0  0  0  0
   -1.5831    0.7795    0.2621 C   0  0  0  0  0
   -3.8892    1.4411    1.1074 N   0  0  0  0  0
   -5.0717   -0.1169   -0.0791 N   0  0  0  0  0
    5.5155   -0.8767   -0.3946 O   0  0  0  0  0
    4.3564   -2.7957   -0.6630 O   0  0  0  0  0
   -3.7046   -0.2460   -0.3543 O   0  0  0  0  0
    3.0597    0.8926    0.0386 S   0  0  0  0  0
   -0.8457   -0.8440   -0.0555 S   0  0  0  0  0
  1  3  1  0  0  0
  2 17  1  0  0  0
  3 18  1  0  0  0
  4  7  1  0  0  0
  4 17  1  0  0  0
  5 12  1  0  0  0
  6 16  1  0  0  0
  7 14  1  0  0  0
  8  9  1  0  0  0
  8 10  1  0  0  0
  9 10  1  0  0  0
 10  5  1  0  0  0
 11  6  1  0  0  0
 11 18  1  0  0  0
 13 16  1  0  0  0
  1  4  2  0  0  0
  2  3  2  0  0  0
  5 13  2  0  0  0
  6 12  2  0  0  0
  7 15  2  0  0  0
M  CHG  1  14  -1
M  END
> <rmsd>
0.595851839

$$$$
ZINC91947610


 18 20  0  0  0  0  0  0  0  0999 V2000
    1.9563   -1.4601   -0.3086 C   0  0  0  0  0
    1.3306    0.7630   -0.0461 C   0  0  0  0  0
    0.8825   -0.5336   -0.1713 C   0  0  0  0  0
    3.1843   -0.8362   -0.2832 C   0  0  0  0  0
   -3.0978    0.4939    0.1323 C   0  0  0  0  0
    4.5243   -1.5677   -0.4084 C   0  0  0  0  0
   -3.9669    3.8927    1.4335 C   0  0  0  0  0
   -2.5542    3.5930    1.0403 C   0  0  0  0  0
   -3.3987    2.5141    1.6767 C   0  0  0  0  0
   -1.6012    0.6069    0.0375 C   0  0  0  0  0
   -3.8720   -0.3985   -0.4409 N   0  0  0  0  0
   -5.1541   -0.0822   -0.0521 N   0  0  0  0  0
   -5.1630    0.9808    0.7428 N   0  0  0  0  0
   -3.8766    1.3391    0.8566 N   0  0  0  0  0
    5.5597   -0.8506   -0.3666 O   0  0  0  0  0
    4.4685   -2.8195   -0.5420 O   0  0  0  0  0
    3.0397    0.8596   -0.0943 S   0  0  0  0  0
   -0.8055   -1.0076   -0.1649 S   0  0  0  0  0
  1  3  1  0  0  0
  2 17  1  0  0  0
  3 18  1  0  0  0
  4  6  1  0  0  0
  4 17  1  0  0  0
  5 14  1  0  0  0
  6 15  1  0  0  0
  7  8  1  0  0  0
  7  9  1  0  0  0
  8  9  1  0  0  0
  9 14  1  0  0  0
 10  5  1  0  0  0
 10 18  1  0  0  0
 11 12  1  0  0  0
 14 13  1  0  0  0
  1  4  2  0  0  0
  2  3  2  0  0  0
  5 11  2  0  0  0
  6 16  2  0  0  0
 12 13  2  0  0  0
M  CHG  1  15  -1
M  END
> <rmsd>
0.600705504

$$$$
ZINC94191073


 20 20  0  0  0  0  0  0  0  0999 V2000
    2.9188   -1.4015   -0.0838 C   0  0  0  0  0
    1.5526   -1.6324    0.0772 C   0  0  0  0  0
    1.1242    0.7328   -0.1664 C   0  0  0  0  0
    3.3877   -0.1034   -0.2860 C   0  0  0  0  0
    0.6554   -0.5653    0.0360 C   0  0  0  0  0
    2.4903    0.9638   -0.3273 C   0  0  0  0  0
    0.1680    1.8690   -0.2121 C   0  0  0  0  0
   -2.9463    2.6644    0.4795 C   0  0  0  0  0
   -3.6406    1.3497    0.8196 C   0  0  0  0  0
   -2.1333    2.5753   -0.8130 C   0  0  0  0  0
   -5.7531   -1.0635    0.0416 N   0  0  0  0  0
   -4.5460    0.9702   -0.2661 N   0  0  0  0  0
   -5.1740   -0.0914   -0.1020 N   0  0  0  0  0
   -1.0906    1.5633   -0.6843 N   0  0  0  0  0
    4.7791    0.1271   -0.4505 N   0  0  0  0  0
    5.5662   -0.8493   -0.4095 O   0  0  0  0  0
    0.5436    2.9837    0.1412 O   0  0  0  0  0
    5.1837    1.3008   -0.6325 O   0  0  0  0  0
   -0.6556   -0.7990    0.1906 F   0  0  0  0  0
    2.9395    2.2132   -0.5231 F   0  0  0  0  0
  1  2  1  0  0  0
  3  5  1  0  0  0
  3  7  1  0  0  0
  4  6  1  0  0  0
  4 15  1  0  0  0
  5 19  1  0  0  0
  6 20  1  0  0  0
  7 14  1  0  0  0
  8  9  1  0  0  0
  8 10  1  0  0  0
  9 12  1  0  0  0
 10 14  1  0  0  0
 15 16  1  0  0  0
  1  4  2  0  0  0
  2  5  2  0  0  0
  3  6  2  0  0  0
  7 17  2  0  0  0
 12 13  2  0  0  0
 13 11  2  0  0  0
 15 18  2  0  0  0
M  CHG  4  11  -1  13   1  15   1  16  -1
M  END
> <rmsd>
0.58164084

$$$$
ZINC89652311


 21 23  0  0  0  0  0  0  0  0999 V2000
   -6.2912    2.4722    0.2171 C   0  0  0  0  0
    3.1222    0.3303    0.0806 C   0  0  0  0  0
    1.8766    0.9280    0.3008 C   0  0  0  0  0
   -4.9170    2.2854    0.1163 C   0  0  0  0  0
    2.0886   -1.7493   -0.6757 C   0  0  0  0  0
   -6.5707    0.1158    0.0577 C   0  0  0  0  0
   -7.1407    1.3719    0.1881 C   0  0  0  0  0
    0.8323   -1.1651   -0.4604 C   0  0  0  0  0
    3.2288   -0.9815   -0.3977 C   0  0  0  0  0
    0.7711    0.1368    0.0144 C   0  0  0  0  0
   -4.4466    0.9883   -0.0107 C   0  0  0  0  0
   -1.2035   -0.6483   -0.2683 C   0  0  0  0  0
   -8.6148    1.5387    0.2939 C   0  0  0  0  0
   -2.6726   -0.5789   -0.2403 C   0  0  0  0  0
   -5.2409   -0.1052   -0.0428 N   0  0  0  0  0
   -0.4397   -1.6535   -0.6361 N   0  0  0  0  0
    4.5161   -1.5468   -0.6064 N   0  0  0  0  0
    5.5308   -0.8538   -0.3558 O   0  0  0  0  0
    4.6002   -2.7225   -1.0349 O   0  0  0  0  0
   -0.5464    0.4735    0.1394 O   0  0  0  0  0
   -3.0995    0.7790   -0.1115 O   0  0  0  0  0
  1  7  1  0  0  0
  2  9  1  0  0  0
  3 10  1  0  0  0
  4 11  1  0  0  0
  5  8  1  0  0  0
  6 15  1  0  0  0
  8 16  1  0  0  0
  9 17  1  0  0  0
 10 20  1  0  0  0
 11 21  1  0  0  0
 12 20  1  0  0  0
 13  7  1  0  0  0
 14 12  1  0  0  0
 14 21  1  0  0  0
 17 18  1  0  0  0
  1  4  2  0  0  0
  2  3  2  0  0  0
  5  9  2  0  0  0
  6  7  2  0  0  0
  8 10  2  0  0  0
 11 15  2  0  0  0
 12 16  2  0  0  0
 17 19  2  0  0  0
M  CHG  2  17   1  18  -1
M  END
> <rmsd>
0.556070387

$$$$
ZINC93435295


 21 22  0  0  0  0  0  0  0  0999 V2000
    2.1512    1.3941    0.3409 C   0  0  0  0  0
    3.3054    0.6437    0.1171 C   0  0  0  0  0
    1.9497   -1.2480   -0.5318 C   0  0  0  0  0
   -4.0747    0.0114    0.8045 C   0  0  0  0  0
    0.8961    0.8235    0.1285 C   0  0  0  0  0
    0.7955   -0.4975   -0.3079 C   0  0  0  0  0
   -3.5792    1.3277    0.8625 C   0  0  0  0  0
    3.2047   -0.6774   -0.3193 C   0  0  0  0  0
   -4.3907    2.0378    0.0117 C   0  0  0  0  0
   -0.2926    1.6295    0.3721 C   0  0  0  0  0
   -0.5365   -1.1328   -0.5417 C   0  0  0  0  0
   -6.3531    1.3962   -1.4274 C   0  0  0  0  0
   -2.4223    1.8335    1.6749 C   0  0  0  0  0
   -5.1200   -0.1103   -0.0180 N   0  0  0  0  0
   -5.2881    1.1387   -0.4846 N   0  0  0  0  0
   -4.4147    3.3377   -0.3504 N   0  0  0  0  0
   -1.1890    1.1598    1.3374 N   0  0  0  0  0
    4.3798   -1.4412   -0.5472 N   0  0  0  0  0
    5.4988   -0.9087   -0.3499 O   0  0  0  0  0
   -0.4895    2.6715   -0.2757 O   0  0  0  0  0
    4.2672   -2.6278   -0.9394 O   0  0  0  0  0
  1  5  1  0  0  0
  2  8  1  0  0  0
  3  6  1  0  0  0
  4  7  1  0  0  0
  5 10  1  0  0  0
  8 18  1  0  0  0
  9 15  1  0  0  0
  9 16  1  0  0  0
 10 17  1  0  0  0
 11  6  1  0  0  0
 12 15  1  0  0  0
 13  7  1  0  0  0
 13 17  1  0  0  0
 15 14  1  0  0  0
 18 19  1  0  0  0
  1  2  2  0  0  0
  3  8  2  0  0  0
  4 14  2  0  0  0
  5  6  2  0  0  0
  7  9  2  0  0  0
 10 20  2  0  0  0
 18 21  2  0  0  0
M  CHG  2  18   1  19  -1
M  END
> <rmsd>
0.572658896

$$$$
ZINC00476967


 20 21  0  0  0  0  0  0  0  0999 V2000
    2.1545    1.3914   -0.0357 C   0  0  0  0  0
    3.3362    0.6593   -0.1501 C   0  0  0  0  0
    2.0588   -1.3896   -0.2346 C   0  0  0  0  0
   -4.2943    0.3916   -0.8888 C   0  0  0  0  0
   -4.1388    1.6923    0.8772 C   0  0  0  0  0
    0.9249    0.7330   -0.0207 C   0  0  0  0  0
   -3.5702    1.4738   -0.3538 C   0  0  0  0  0
    3.2884   -0.7311   -0.2496 C   0  0  0  0  0
    0.8770   -0.6575   -0.1202 C   0  0  0  0  0
   -0.2836    1.5388    0.1029 C   0  0  0  0  0
   -6.0128    0.5977    2.1299 C   0  0  0  0  0
   -2.4326    2.2232   -0.9851 C   0  0  0  0  0
   -5.2499   -0.0469   -0.0650 N   0  0  0  0  0
   -5.1301    0.7638    1.0001 N   0  0  0  0  0
   -1.2012    1.4675   -0.9497 N   0  0  0  0  0
    4.4917   -1.4761   -0.3684 N   0  0  0  0  0
    5.5868   -0.8639   -0.3819 O   0  0  0  0  0
   -0.4564    2.2630    1.0972 O   0  0  0  0  0
    4.4266   -2.7261   -0.4562 O   0  0  0  0  0
   -0.6246   -1.5104   -0.1038 Cl  0  0  0  0  0
  1  6  1  0  0  0
  2  8  1  0  0  0
  3  9  1  0  0  0
  4  7  1  0  0  0
  5 14  1  0  0  0
  6 10  1  0  0  0
  8 16  1  0  0  0
  9 20  1  0  0  0
 10 15  1  0  0  0
 11 14  1  0  0  0
 12  7  1  0  0  0
 12 15  1  0  0  0
 14 13  1  0  0  0
 16 17  1  0  0  0
  1  2  2  0  0  0
  3  8  2  0  0  0
  4 13  2  0  0  0
  5  7  2  0  0  0
  6  9  2  0  0  0
 10 18  2  0  0  0
 16 19  2  0  0  0
M  CHG  2  16   1  17  -1
M  END
> <rmsd>
0.581845164

$$$$
ZINC02705114


 19 20  0  0  0  0  0  0  0  0999 V2000
    1.3378   -0.5324   -0.9556 C   0  0  0  0  0
    2.6850   -0.3024   -1.3529 C   0  0  0  0  0
    3.5148   -0.1264   -0.2677 C   0  0  0  0  0
    1.1839   -0.5239    0.4208 C   0  0  0  0  0
    0.1690   -0.7633   -1.7899 C   0  0  0  0  0
   -1.0051   -0.9177    0.3537 C   0  0  0  0  0
    5.0231    0.1397   -0.3531 C   0  0  0  0  0
   -4.8777    0.0820    0.8476 C   0  0  0  0  0
    3.1490   -0.2568   -2.7624 C   0  0  0  0  0
   -3.4612    0.2094    0.3053 C   0  0  0  0  0
    0.0264   -0.7129    1.1160 N   0  0  0  0  0
   -0.9883   -0.9513   -1.0351 N   0  0  0  0  0
    5.7691   -0.8747   -0.3547 O   0  0  0  0  0
   -4.9769    0.1127    2.1074 O   0  0  0  0  0
    0.2004   -0.7893   -3.0156 O   0  0  0  0  0
    5.3738    1.3475   -0.4133 O   0  0  0  0  0
   -5.7781   -0.0689   -0.0269 O   0  0  0  0  0
    2.6692   -0.2379    1.2168 S   0  0  0  0  0
   -2.5838   -1.1823    1.0481 S   0  0  0  0  0
  1  2  1  0  0  0
  1  5  1  0  0  0
  3  7  1  0  0  0
  3 18  1  0  0  0
  4 11  1  0  0  0
  4 18  1  0  0  0
  5 12  1  0  0  0
  6 12  1  0  0  0
  6 19  1  0  0  0
  7 13  1  0  0  0
  8 14  1  0  0  0
  9  2  1  0  0  0
 10  8  1  0  0  0
 10 19  1  0  0  0
  1  4  2  0  0  0
  2  3  2  0  0  0
  5 15  2  0  0  0
  6 11  2  0  0  0
  7 16  2  0  0  0
  8 17  2  0  0  0
M  CHG  2  13  -1  14  -1
M  END
> <rmsd>
0.490759879

$$$$
ZINC94190801


 21 22  0  0  0  0  0  0  0  0999 V2000
    3.0119   -1.3955    0.0320 C   0  0  0  0  0
    1.6541   -1.6244    0.2545 C   0  0  0  0  0
    1.1801    0.6883   -0.2594 C   0  0  0  0  0
    3.4538   -0.1247   -0.3361 C   0  0  0  0  0
    0.7382   -0.5825    0.1087 C   0  0  0  0  0
    2.5379    0.9171   -0.4818 C   0  0  0  0  0
   -4.4325    0.7081   -0.3999 C   0  0  0  0  0
    0.2042    1.7973   -0.4162 C   0  0  0  0  0
   -3.6735    1.4296    0.6955 C   0  0  0  0  0
   -2.9107    2.6654    0.2386 C   0  0  0  0  0
   -3.0795    1.9372   -2.1285 C   0  0  0  0  0
   -2.1226    2.3943   -1.0377 C   0  0  0  0  0
   -4.0032    0.9048   -1.6927 N   0  0  0  0  0
   -1.0710    1.4297   -0.8181 N   0  0  0  0  0
    4.8369    0.1036   -0.5626 N   0  0  0  0  0
    5.6411   -0.8498   -0.4252 O   0  0  0  0  0
   -5.3392   -0.0780   -0.1187 O   0  0  0  0  0
    0.5692    2.9515   -0.2087 O   0  0  0  0  0
    5.2172    1.2525   -0.8940 O   0  0  0  0  0
   -0.5646   -0.8143    0.3237 F   0  0  0  0  0
    2.9612    2.1401   -0.8372 F   0  0  0  0  0
  1  2  1  0  0  0
  3  5  1  0  0  0
  3  8  1  0  0  0
  4  6  1  0  0  0
  4 15  1  0  0  0
  5 20  1  0  0  0
  6 21  1  0  0  0
  7 13  1  0  0  0
  8 14  1  0  0  0
  9  7  1  0  0  0
  9 10  1  0  0  0
 10 12  1  0  0  0
 11 12  1  0  0  0
 11 13  1  0  0  0
 12 14  1  0  0  0
 15 16  1  0  0  0
  1  4  2  0  0  0
  2  5  2  0  0  0
  3  6  2  0  0  0
  7 17  2  0  0  0
  8 18  2  0  0  0
 15 19  2  0  0  0
M  CHG  2  15   1  16  -1
M  END
> <rmsd>
0.550581455

$$$$
ZINC94348582


 21 22  0  0  0  0  0  0  0  0999 V2000
    2.0866   -1.5083   -0.1578 C   0  0  0  0  0
    3.2723    0.5943   -0.2562 C   0  0  0  0  0
    3.2856   -0.8004   -0.2393 C   0  0  0  0  0
    0.8609    0.5731   -0.1101 C   0  0  0  0  0
    0.8742   -0.8216   -0.0933 C   0  0  0  0  0
    2.0600    1.2811   -0.1916 C   0  0  0  0  0
    4.5644   -1.5253   -0.3076 C   0  0  0  0  0
   -1.6953    0.4673    1.7472 C   0  0  0  0  0
   -3.7223   -0.9094    1.4047 C   0  0  0  0  0
   -3.1328    0.7290   -0.3334 C   0  0  0  0  0
   -5.1701   -0.4607    1.2675 C   0  0  0  0  0
   -4.6073    1.1060   -0.4019 C   0  0  0  0  0
   -0.8186    1.5829    1.2372 C   0  0  0  0  0
   -2.8156    0.1569    0.9793 N   0  0  0  0  0
    5.6576   -0.8485   -0.3826 O   0  0  0  0  0
    4.5488   -2.8132   -0.2905 O   0  0  0  0  0
   -1.3954   -0.1067    2.7970 O   0  0  0  0  0
   -5.4256   -0.0182   -0.0681 O   0  0  0  0  0
   -0.3339    1.2499   -0.0472 O   0  0  0  0  0
   -0.2748   -1.5071   -0.0159 F   0  0  0  0  0
    2.0537    2.6210   -0.2074 F   0  0  0  0  0
  1  3  1  0  0  0
  2  6  1  0  0  0
  3  7  1  0  0  0
  4  5  1  0  0  0
  4 19  1  0  0  0
  5 20  1  0  0  0
  6 21  1  0  0  0
  7 15  1  0  0  0
  8 14  1  0  0  0
  9 11  1  0  0  0
  9 14  1  0  0  0
 10 12  1  0  0  0
 10 14  1  0  0  0
 11 18  1  0  0  0
 12 18  1  0  0  0
 13  8  1  0  0  0
 13 19  1  0  0  0
  1  5  2  0  0  0
  2  3  2  0  0  0
  4  6  2  0  0  0
  7 16  2  0  0  0
  8 17  2  0  0  0
M  CHG  1  15  -1
M  END
> <rmsd>
0.535184562

$$$$
ZINC94348544


 21 21  0  0  0  0  0  0  0  0999 V2000
    1.9693   -1.4656    0.0324 C   0  0  0  0  0
    3.1570    0.6142   -0.2852 C   0  0  0  0  0
    3.1654   -0.7753   -0.1639 C   0  0  0  0  0
    0.7563    0.6234   -0.0143 C   0  0  0  0  0
    0.7647   -0.7662    0.1071 C   0  0  0  0  0
    1.9524    1.3136   -0.2105 C   0  0  0  0  0
    4.4359   -1.5136   -0.2429 C   0  0  0  0  0
   -2.5183    0.5457    0.9463 C   0  0  0  0  0
   -4.5570    0.9879   -0.4054 C   0  0  0  0  0
   -1.3344    2.5547    1.8994 C   0  0  0  0  0
   -6.3373    1.9106   -1.8987 C   0  0  0  0  0
   -1.1719    1.1842    1.2600 C   0  0  0  0  0
   -3.2844    1.3260    0.0792 N   0  0  0  0  0
   -5.0483    1.9820   -1.2496 N   0  0  0  0  0
    5.5266   -0.8530   -0.4249 O   0  0  0  0  0
    4.4160   -2.7963   -0.1278 O   0  0  0  0  0
   -2.8547   -0.5442    1.4036 O   0  0  0  0  0
   -5.1580   -0.0471   -0.1221 O   0  0  0  0  0
   -0.4285    1.3111    0.0587 O   0  0  0  0  0
   -0.3815   -1.4348    0.2950 F   0  0  0  0  0
    1.9508    2.6485   -0.3269 F   0  0  0  0  0
  1  3  1  0  0  0
  2  6  1  0  0  0
  3  7  1  0  0  0
  4  5  1  0  0  0
  4 19  1  0  0  0
  5 20  1  0  0  0
  6 21  1  0  0  0
  7 15  1  0  0  0
  8 13  1  0  0  0
  9 13  1  0  0  0
  9 14  1  0  0  0
 10 12  1  0  0  0
 11 14  1  0  0  0
 12  8  1  0  0  0
 12 19  1  0  0  0
  1  5  2  0  0  0
  2  3  2  0  0  0
  4  6  2  0  0  0
  7 16  2  0  0  0
  8 17  2  0  0  0
  9 18  2  0  0  0
M  CHG  1  15  -1
M  END
> <rmsd>
0.576962054

$$$$
ZINC67383592


 22 23  0  0  0  0  0  0  0  0999 V2000
    1.9031    1.1532   -0.4913 C   0  0  0  0  0
    3.1458    0.5201   -0.4797 C   0  0  0  0  0
    2.0864   -1.5477    0.1825 C   0  0  0  0  0
    0.7518    0.4358   -0.1658 C   0  0  0  0  0
    3.2376   -0.8303   -0.1428 C   0  0  0  0  0
    0.8436   -0.9146    0.1710 C   0  0  0  0  0
   -5.9858    1.9228    2.7375 C   0  0  0  0  0
   -5.8469    0.8474    1.9537 C   0  0  0  0  0
   -5.6404    3.2349    2.2615 C   0  0  0  0  0
   -5.1721    3.3864    1.0179 C   0  0  0  0  0
   -5.3235    0.9981    0.5616 C   0  0  0  0  0
   -3.0323    2.1198   -1.3186 C   0  0  0  0  0
   -2.1055    2.9032   -0.3826 C   0  0  0  0  0
   -4.4932    2.5354   -1.1765 C   0  0  0  0  0
   -0.6514    2.4685   -0.5188 C   0  0  0  0  0
   -5.0009    2.3093    0.1483 N   0  0  0  0  0
   -0.4758    1.0640   -0.1781 N   0  0  0  0  0
    4.5028   -1.4749   -0.1312 N   0  0  0  0  0
    5.5259   -0.8114   -0.4271 O   0  0  0  0  0
   -5.2032   -0.0066   -0.1377 O   0  0  0  0  0
    4.5633   -2.6902    0.1750 O   0  0  0  0  0
   -0.2565   -1.6138    0.4847 F   0  0  0  0  0
  1  4  1  0  0  0
  2  5  1  0  0  0
  3  6  1  0  0  0
  4 17  1  0  0  0
  5 18  1  0  0  0
  6 22  1  0  0  0
  7  9  1  0  0  0
  8 11  1  0  0  0
 10 16  1  0  0  0
 11 16  1  0  0  0
 12 13  1  0  0  0
 12 14  1  0  0  0
 13 15  1  0  0  0
 14 16  1  0  0  0
 15 17  1  0  0  0
 18 19  1  0  0  0
  1  2  2  0  0  0
  3  5  2  0  0  0
  4  6  2  0  0  0
  7  8  2  0  0  0
  9 10  2  0  0  0
 11 20  2  0  0  0
 18 21  2  0  0  0
M  CHG  2  18   1  19  -1
M  END
> <rmsd>
0.630092919

$$$$
ZINC00372987


 21 22  0  0  0  0  0  0  0  0999 V2000
    2.1545    1.3909   -0.0353 C   0  0  0  0  0
    3.3362    0.6588   -0.1498 C   0  0  0  0  0
    2.0583   -1.3900   -0.2343 C   0  0  0  0  0
   -4.2945    0.3923   -0.8877 C   0  0  0  0  0
   -4.1386    1.6930    0.8783 C   0  0  0  0  0
    0.9248    0.7328   -0.0202 C   0  0  0  0  0
   -3.5702    1.4744   -0.3528 C   0  0  0  0  0
    3.2880   -0.7318   -0.2493 C   0  0  0  0  0
    0.8766   -0.6576   -0.1197 C   0  0  0  0  0
   -0.2836    1.5389    0.1036 C   0  0  0  0  0
   -7.3954    1.1708    1.8695 C   0  0  0  0  0
   -2.4326    2.2237   -0.9842 C   0  0  0  0  0
   -6.0127    0.5987    2.1311 C   0  0  0  0  0
   -5.2501   -0.0461   -0.0639 N   0  0  0  0  0
   -5.1302    0.7645    1.0012 N   0  0  0  0  0
   -1.2013    1.4677   -0.9489 N   0  0  0  0  0
    4.4911   -1.4769   -0.3683 N   0  0  0  0  0
    5.5863   -0.8649   -0.3819 O   0  0  0  0  0
   -0.4562    2.2629    1.0979 O   0  0  0  0  0
    4.4258   -2.7268   -0.4562 O   0  0  0  0  0
   -0.6252   -1.5103   -0.1033 Cl  0  0  0  0  0
  1  6  1  0  0  0
  2  8  1  0  0  0
  3  9  1  0  0  0
  4  7  1  0  0  0
  5 15  1  0  0  0
  6 10  1  0  0  0
  8 17  1  0  0  0
  9 21  1  0  0  0
 10 16  1  0  0  0
 11 13  1  0  0  0
 12  7  1  0  0  0
 12 16  1  0  0  0
 13 15  1  0  0  0
 15 14  1  0  0  0
 17 18  1  0  0  0
  1  2  2  0  0  0
  3  8  2  0  0  0
  4 14  2  0  0  0
  5  7  2  0  0  0
  6  9  2  0  0  0
 10 19  2  0  0  0
 17 20  2  0  0  0
M  CHG  2  17   1  18  -1
M  END
> <rmsd>
0.581683695

$$$$
ZINC34041191


 21 22  0  0  0  0  0  0  0  0999 V2000
    2.0541    0.8961    0.2454 C   0  0  0  0  0
    3.3105    0.3111    0.0432 C   0  0  0  0  0
    2.2959   -1.7943   -0.6447 C   0  0  0  0  0
    0.9070    0.1231   -0.0017 C   0  0  0  0  0
    1.0552   -1.1909   -0.4366 C   0  0  0  0  0
    3.4270   -1.0103   -0.3941 C   0  0  0  0  0
   -1.0763   -0.6325   -0.2369 C   0  0  0  0  0
   -4.8850    0.8192    0.2696 C   0  0  0  0  0
   -5.5030    2.1155    0.7109 C   0  0  0  0  0
   -5.2072    5.3507   -0.9297 C   0  0  0  0  0
   -3.3792    0.7740    0.2439 C   0  0  0  0  0
   -5.7035    4.3729    0.1140 C   0  0  0  0  0
   -0.4238    0.4521    0.1166 N   0  0  0  0  0
   -0.2292   -1.6498   -0.5789 N   0  0  0  0  0
    4.7185   -1.5712   -0.5876 N   0  0  0  0  0
    5.7280   -0.8625   -0.3600 O   0  0  0  0  0
   -5.6547   -0.0792   -0.0369 O   0  0  0  0  0
   -6.2364    2.1661    1.6790 O   0  0  0  0  0
    4.8117   -2.7587   -0.9800 O   0  0  0  0  0
   -5.1404    3.0845   -0.1496 O   0  0  0  0  0
   -2.7832   -0.8548   -0.2981 S   0  0  0  0  0
  1  4  1  0  0  0
  2  6  1  0  0  0
  3  5  1  0  0  0
  4 13  1  0  0  0
  5 14  1  0  0  0
  6 15  1  0  0  0
  7 14  1  0  0  0
  7 21  1  0  0  0
  8  9  1  0  0  0
  9 20  1  0  0  0
 10 12  1  0  0  0
 11  8  1  0  0  0
 11 21  1  0  0  0
 12 20  1  0  0  0
 15 16  1  0  0  0
  1  2  2  0  0  0
  3  6  2  0  0  0
  4  5  2  0  0  0
  7 13  2  0  0  0
  8 17  2  0  0  0
  9 18  2  0  0  0
 15 19  2  0  0  0
M  CHG  2  15   1  16  -1
M  END
> <rmsd>
0.517569125

$$$$
ZINC34041191


 21 22  0  0  0  0  0  0  0  0999 V2000
    2.0543    0.8961    0.2456 C   0  0  0  0  0
    3.3107    0.3111    0.0434 C   0  0  0  0  0
    2.2960   -1.7944   -0.6445 C   0  0  0  0  0
    0.9072    0.1230   -0.0015 C   0  0  0  0  0
    1.0553   -1.1910   -0.4364 C   0  0  0  0  0
    3.4271   -1.0104   -0.3939 C   0  0  0  0  0
   -1.0761   -0.6325   -0.2366 C   0  0  0  0  0
   -4.8848    0.8191    0.2698 C   0  0  0  0  0
   -5.5028    2.1154    0.7111 C   0  0  0  0  0
   -4.9519    3.8390    3.8689 C   0  0  0  0  0
   -3.3790    0.7739    0.2442 C   0  0  0  0  0
   -5.5270    3.6513    2.4811 C   0  0  0  0  0
   -0.4236    0.4521    0.1169 N   0  0  0  0  0
   -0.2291   -1.6499   -0.5786 N   0  0  0  0  0
    4.7187   -1.5712   -0.5873 N   0  0  0  0  0
    5.7281   -0.8626   -0.3598 O   0  0  0  0  0
   -5.6545   -0.0792   -0.0366 O   0  0  0  0  0
   -6.2352    2.7468   -0.0256 O   0  0  0  0  0
    4.8118   -2.7587   -0.9797 O   0  0  0  0  0
   -5.0627    2.4073    1.9488 O   0  0  0  0  0
   -2.7831   -0.8548   -0.2979 S   0  0  0  0  0
  1  4  1  0  0  0
  2  6  1  0  0  0
  3  5  1  0  0  0
  4 13  1  0  0  0
  5 14  1  0  0  0
  6 15  1  0  0  0
  7 14  1  0  0  0
  7 21  1  0  0  0
  8  9  1  0  0  0
  9 20  1  0  0  0
 10 12  1  0  0  0
 11  8  1  0  0  0
 11 21  1  0  0  0
 12 20  1  0  0  0
 15 16  1  0  0  0
  1  2  2  0  0  0
  3  6  2  0  0  0
  4  5  2  0  0  0
  7 13  2  0  0  0
  8 17  2  0  0  0
  9 18  2  0  0  0
 15 19  2  0  0  0
M  CHG  2  15   1  16  -1
M  END
> <rmsd>
0.517569065

$$$$
ZINC34041191


 21 22  0  0  0  0  0  0  0  0999 V2000
    2.0546    0.8959    0.2457 C   0  0  0  0  0
    3.3110    0.3109    0.0435 C   0  0  0  0  0
    2.2963   -1.7946   -0.6444 C   0  0  0  0  0
    0.9075    0.1228   -0.0014 C   0  0  0  0  0
    1.0556   -1.1912   -0.4363 C   0  0  0  0  0
    3.4274   -1.0105   -0.3938 C   0  0  0  0  0
   -1.0758   -0.6327   -0.2365 C   0  0  0  0  0
   -4.8846    0.8189    0.2699 C   0  0  0  0  0
   -5.5025    2.1152    0.7112 C   0  0  0  0  0
   -9.0494    2.8204    1.1218 C   0  0  0  0  0
   -3.3787    0.7737    0.2443 C   0  0  0  0  0
   -7.5671    3.1238    1.1725 C   0  0  0  0  0
   -0.4233    0.4519    0.1170 N   0  0  0  0  0
   -0.2288   -1.6501   -0.5785 N   0  0  0  0  0
    4.7190   -1.5714   -0.5872 N   0  0  0  0  0
    5.7284   -0.8628   -0.3597 O   0  0  0  0  0
   -5.6542   -0.0794   -0.0365 O   0  0  0  0  0
   -4.8139    3.0633    1.0345 O   0  0  0  0  0
    4.8121   -2.7589   -0.9796 O   0  0  0  0  0
   -6.8412    1.9786    0.7165 O   0  0  0  0  0
   -2.7828   -0.8550   -0.2978 S   0  0  0  0  0
  1  4  1  0  0  0
  2  6  1  0  0  0
  3  5  1  0  0  0
  4 13  1  0  0  0
  5 14  1  0  0  0
  6 15  1  0  0  0
  7 14  1  0  0  0
  7 21  1  0  0  0
  8  9  1  0  0  0
  9 20  1  0  0  0
 10 12  1  0  0  0
 11  8  1  0  0  0
 11 21  1  0  0  0
 12 20  1  0  0  0
 15 16  1  0  0  0
  1  2  2  0  0  0
  3  6  2  0  0  0
  4  5  2  0  0  0
  7 13  2  0  0  0
  8 17  2  0  0  0
  9 18  2  0  0  0
 15 19  2  0  0  0
M  CHG  2  15   1  16  -1
M  END
> <rmsd>
0.517569065

$$$$
ZINC91014063


 23 25  0  0  0  0  0  0  0  0999 V2000
    2.0952    1.2469   -0.3535 C   0  0  0  0  0
    3.3165    0.5740   -0.3856 C   0  0  0  0  0
    2.1834   -1.5056    0.0925 C   0  0  0  0  0
   -6.0485    0.8926    0.6196 C   0  0  0  0  0
    0.9621   -0.8326    0.1247 C   0  0  0  0  0
    0.9179    0.5435   -0.0983 C   0  0  0  0  0
    3.3607   -0.8022   -0.1627 C   0  0  0  0  0
   -4.0852    1.6733    0.1245 C   0  0  0  0  0
   -2.0259    2.5839   -1.2146 C   0  0  0  0  0
   -1.9409    2.4655    1.2761 C   0  0  0  0  0
   -1.0738    1.3854   -1.3037 C   0  0  0  0  0
   -1.0648    1.2178    1.1818 C   0  0  0  0  0
   -2.8858    2.6153    0.0655 C   0  0  0  0  0
   -0.2836   -1.6104    0.4005 C   0  0  0  0  0
   -6.4479    4.1007    0.8094 C   0  0  0  0  0
   -5.5283    3.1540    1.5616 C   0  0  0  0  0
   -5.4434   -0.0046   -0.1257 N   0  0  0  0  0
   -4.1943    0.4922   -0.4407 N   0  0  0  0  0
   -5.2297    1.9655    0.8024 N   0  0  0  0  0
   -0.2987    1.2353   -0.0693 N   0  0  0  0  0
    4.6043   -1.4868   -0.1956 N   0  0  0  0  0
    5.6512   -0.8350   -0.4269 O   0  0  0  0  0
    4.6224   -2.7249    0.0077 O   0  0  0  0  0
  1  6  1  0  0  0
  2  7  1  0  0  0
  3  5  1  0  0  0
  4 19  1  0  0  0
  6 20  1  0  0  0
  7 21  1  0  0  0
  8 19  1  0  0  0
  9 11  1  0  0  0
  9 13  1  0  0  0
 10 12  1  0  0  0
 10 13  1  0  0  0
 11 20  1  0  0  0
 12 20  1  0  0  0
 13  8  1  0  0  0
 14  5  1  0  0  0
 15 16  1  0  0  0
 16 19  1  0  0  0
 17 18  1  0  0  0
 21 22  1  0  0  0
  1  2  2  0  0  0
  3  7  2  0  0  0
  4 17  2  0  0  0
  5  6  2  0  0  0
  8 18  2  0  0  0
 21 23  2  0  0  0
M  CHG  2  21   1  22  -1
M  END
> <rmsd>
0.570534527

$$$$
ZINC80966977


 23 24  0  0  0  0  0  0  0  0999 V2000
    2.1990    1.3239   -0.0016 C   0  0  0  0  0
    3.3948    0.6147   -0.1134 C   0  0  0  0  0
    2.1514   -1.4366   -0.4021 C   0  0  0  0  0
   -5.0352   -1.0205    0.7808 C   0  0  0  0  0
   -4.2199   -0.7740    1.8633 C   0  0  0  0  0
   -5.0825    1.2162    0.3068 C   0  0  0  0  0
    0.9555   -0.7274   -0.2902 C   0  0  0  0  0
    0.9793    0.6529   -0.0899 C   0  0  0  0  0
    3.3711   -0.7655   -0.3137 C   0  0  0  0  0
   -4.2677    1.4629    1.3898 C   0  0  0  0  0
   -0.3615    2.7604    0.2253 C   0  0  0  0  0
   -0.3366   -1.4717   -0.3881 C   0  0  0  0  0
   -1.9182    4.2156    2.5351 C   0  0  0  0  0
   -3.8443    2.8637    1.7204 C   0  0  0  0  0
   -1.8237    3.1392    0.2913 C   0  0  0  0  0
   -5.4811   -0.0300   -0.0169 N   0  0  0  0  0
   -3.8215    0.4722    2.1873 N   0  0  0  0  0
   -0.2230    1.3902    0.0260 N   0  0  0  0  0
    4.5888   -1.4872   -0.4271 N   0  0  0  0  0
   -2.3539    3.0499    1.6939 N   0  0  0  0  0
    5.6747   -0.8640   -0.3444 O   0  0  0  0  0
    0.5315    3.5940    0.3353 O   0  0  0  0  0
    4.5456   -2.7281   -0.6069 O   0  0  0  0  0
  1  8  1  0  0  0
  2  9  1  0  0  0
  3  7  1  0  0  0
  4 16  1  0  0  0
  5 17  1  0  0  0
  6 10  1  0  0  0
  8 18  1  0  0  0
  9 19  1  0  0  0
 11 18  1  0  0  0
 12  7  1  0  0  0
 13 20  1  0  0  0
 14 10  1  0  0  0
 14 20  1  0  0  0
 15 11  1  0  0  0
 15 20  1  0  0  0
 19 21  1  0  0  0
  1  2  2  0  0  0
  3  9  2  0  0  0
  4  5  2  0  0  0
  6 16  2  0  0  0
  7  8  2  0  0  0
 10 17  2  0  0  0
 11 22  2  0  0  0
 19 23  2  0  0  0
M  CHG  3  19   1  20   1  21  -1
M  END
> <rmsd>
0.542908549

$$$$
ZINC91947438


 21 23  0  0  0  0  0  0  0  0999 V2000
   -8.9598    2.1079    2.2456 C   0  0  0  0  0
   -7.9384    3.0471    2.1031 C   0  0  0  0  0
   -8.7331    0.7741    1.9057 C   0  0  0  0  0
   -6.6904    2.6526    1.6209 C   0  0  0  0  0
   -7.4852    0.3796    1.4235 C   0  0  0  0  0
    1.9007   -1.3908   -0.3062 C   0  0  0  0  0
   -3.9331    1.4833    1.0962 C   0  0  0  0  0
    1.3370    0.8294    0.0880 C   0  0  0  0  0
   -6.4638    1.3188    1.2810 C   0  0  0  0  0
    0.8535   -0.4465   -0.1016 C   0  0  0  0  0
   -5.1791    0.9124    0.7843 C   0  0  0  0  0
    3.1448   -0.8005   -0.2654 C   0  0  0  0  0
   -3.0424    0.7377    0.3703 C   0  0  0  0  0
    4.4635   -1.5576   -0.4513 C   0  0  0  0  0
   -1.5832    0.7690    0.2114 C   0  0  0  0  0
   -5.0696   -0.1092   -0.0696 N   0  0  0  0  0
    5.5176   -0.8702   -0.3859 O   0  0  0  0  0
    4.3731   -2.7981   -0.6528 O   0  0  0  0  0
   -3.7085   -0.2159   -0.3296 O   0  0  0  0  0
    3.0471    0.8853    0.0189 S   0  0  0  0  0
   -0.8567   -0.8800   -0.0953 S   0  0  0  0  0
  1  2  1  0  0  0
  3  5  1  0  0  0
  4  9  1  0  0  0
  6 10  1  0  0  0
  7 11  1  0  0  0
  8 20  1  0  0  0
  9 11  1  0  0  0
 10 21  1  0  0  0
 12 14  1  0  0  0
 12 20  1  0  0  0
 13 19  1  0  0  0
 14 17  1  0  0  0
 15 13  1  0  0  0
 15 21  1  0  0  0
 16 19  1  0  0  0
  1  3  2  0  0  0
  2  4  2  0  0  0
  5  9  2  0  0  0
  6 12  2  0  0  0
  7 13  2  0  0  0
  8 10  2  0  0  0
 11 16  2  0  0  0
 14 18  2  0  0  0
M  CHG  1  17  -1
M  END
> <rmsd>
0.604702234

$$$$
ZINC71899641


 21 22  0  0  0  0  0  0  0  0999 V2000
    2.1636    1.2850    0.3590 C   0  0  0  0  0
    3.3443    0.5733    0.1470 C   0  0  0  0  0
    2.0677   -1.2866   -0.7182 C   0  0  0  0  0
    0.9349    0.7109    0.0323 C   0  0  0  0  0
    3.2964   -0.7125   -0.3915 C   0  0  0  0  0
    0.8870   -0.5749   -0.5062 C   0  0  0  0  0
   -1.6246    3.4262   -0.1550 C   0  0  0  0  0
   -2.6687    2.8912    0.8183 C   0  0  0  0  0
   -0.2304    2.8913    0.1643 C   0  0  0  0  0
   -1.2430    0.8362    1.1551 C   0  0  0  0  0
   -2.6497    1.3589    0.8284 C   0  0  0  0  0
   -3.6735    0.8141    1.8223 C   0  0  0  0  0
   -0.2488    1.4272    0.2465 N   0  0  0  0  0
   -6.1800    0.2008    2.4489 N   0  0  0  0  0
    4.4985   -1.4364   -0.6085 N   0  0  0  0  0
    5.5931   -0.9011   -0.3088 O   0  0  0  0  0
    4.4335   -2.5917   -1.0938 O   0  0  0  0  0
   -5.6865    2.2391    0.9592 O   0  0  0  0  0
   -5.3493   -0.0872    0.0315 O   0  0  0  0  0
   -0.2882   -1.1353   -0.8256 F   0  0  0  0  0
   -5.2946    0.8500    1.1430 S   0  0  0  0  0
  1  2  1  0  0  0
  3  5  1  0  0  0
  4  6  1  0  0  0
  4 13  1  0  0  0
  5 15  1  0  0  0
  6 20  1  0  0  0
  7  8  1  0  0  0
  7  9  1  0  0  0
  8 11  1  0  0  0
  9 13  1  0  0  0
 10 11  1  0  0  0
 10 13  1  0  0  0
 11 12  1  0  0  0
 12 21  1  0  0  0
 15 16  1  0  0  0
 21 14  1  0  0  0
  1  4  2  0  0  0
  2  5  2  0  0  0
  3  6  2  0  0  0
 15 17  2  0  0  0
 21 18  2  0  0  0
 21 19  2  0  0  0
M  CHG  2  15   1  16  -1
M  END
> <rmsd>
0.574755967

$$$$
ZINC71899642


 21 22  0  0  0  0  0  0  0  0999 V2000
    2.1451    1.3464   -0.0813 C   0  0  0  0  0
    3.3355    0.6281   -0.1923 C   0  0  0  0  0
    2.0939   -1.4427   -0.1071 C   0  0  0  0  0
    0.9290    0.6702    0.0169 C   0  0  0  0  0
    3.3099   -0.7666   -0.2053 C   0  0  0  0  0
    0.9034   -0.7244    0.0040 C   0  0  0  0  0
   -1.5642    3.0764    1.3676 C   0  0  0  0  0
   -2.6559    2.9992    0.3063 C   0  0  0  0  0
   -0.2009    2.7024    0.7928 C   0  0  0  0  0
   -1.3063    1.2302   -0.8930 C   0  0  0  0  0
   -2.6846    1.6038   -0.3255 C   0  0  0  0  0
   -3.7553    1.5247   -1.4119 C   0  0  0  0  0
   -0.2647    1.3935    0.1288 N   0  0  0  0  0
   -6.2940    1.2267   -2.1309 N   0  0  0  0  0
    4.5218   -1.4977   -0.3197 N   0  0  0  0  0
    5.6047   -0.8698   -0.4079 O   0  0  0  0  0
    4.4769   -2.7516   -0.3293 O   0  0  0  0  0
   -5.3738   -0.0479   -0.0949 O   0  0  0  0  0
   -5.7095    2.4523    0.0538 O   0  0  0  0  0
   -0.2599   -1.3843    0.0957 F   0  0  0  0  0
   -5.3476    1.2694   -0.7120 S   0  0  0  0  0
  1  2  1  0  0  0
  3  5  1  0  0  0
  4  6  1  0  0  0
  4 13  1  0  0  0
  5 15  1  0  0  0
  6 20  1  0  0  0
  7  8  1  0  0  0
  7  9  1  0  0  0
  8 11  1  0  0  0
  9 13  1  0  0  0
 10 11  1  0  0  0
 10 13  1  0  0  0
 11 12  1  0  0  0
 12 21  1  0  0  0
 15 16  1  0  0  0
 21 14  1  0  0  0
  1  4  2  0  0  0
  2  5  2  0  0  0
  3  6  2  0  0  0
 15 17  2  0  0  0
 21 18  2  0  0  0
 21 19  2  0  0  0
M  CHG  2  15   1  16  -1
M  END
> <rmsd>
0.487439543

$$$$
ZINC00500708


 22 24  0  0  0  0  0  0  0  0999 V2000
    1.9979    0.9071    0.3171 C   0  0  0  0  0
    3.2480    0.3134    0.0900 C   0  0  0  0  0
    2.2174   -1.7582   -0.6902 C   0  0  0  0  0
    0.8497    0.1534    0.0348 C   0  0  0  0  0
    3.3530   -0.9928   -0.4035 C   0  0  0  0  0
    0.9978   -1.1366   -0.4529 C   0  0  0  0  0
   -1.0798   -0.6447   -0.2626 C   0  0  0  0  0
   -4.8453    0.8842    0.3230 C   0  0  0  0  0
   -6.5524    4.7257    0.5442 C   0  0  0  0  0
   -7.2998    3.4829    0.0636 C   0  0  0  0  0
   -5.0409    4.5081    0.4925 C   0  0  0  0  0
   -6.8528    2.2399    0.8278 C   0  0  0  0  0
   -4.6356    3.2444    1.2480 C   0  0  0  0  0
   -3.3399    0.8046    0.2896 C   0  0  0  0  0
   -0.4861    0.4533    0.1509 N   0  0  0  0  0
   -5.3978    2.0842    0.7692 N   0  0  0  0  0
    4.6407   -1.5547   -0.6187 N   0  0  0  0  0
    5.6549   -0.8639   -0.3600 O   0  0  0  0  0
   -5.5086   -0.0910   -0.0391 O   0  0  0  0  0
    4.7257   -2.7254   -1.0606 O   0  0  0  0  0
   -0.2505   -1.6552   -0.6461 O   0  0  0  0  0
   -2.8396   -0.8137   -0.3227 S   0  0  0  0  0
  1  2  1  0  0  0
  3  5  1  0  0  0
  4  6  1  0  0  0
  4 15  1  0  0  0
  5 17  1  0  0  0
  6 21  1  0  0  0
  7 21  1  0  0  0
  7 22  1  0  0  0
  8 16  1  0  0  0
  9 10  1  0  0  0
  9 11  1  0  0  0
 10 12  1  0  0  0
 11 13  1  0  0  0
 12 16  1  0  0  0
 13 16  1  0  0  0
 14  8  1  0  0  0
 14 22  1  0  0  0
 17 18  1  0  0  0
  1  4  2  0  0  0
  2  5  2  0  0  0
  3  6  2  0  0  0
  7 15  2  0  0  0
  8 19  2  0  0  0
 17 20  2  0  0  0
M  CHG  2  17   1  18  -1
M  END
> <rmsd>
0.512574852

$$$$
ZINC05614445


 22 24  0  0  0  0  0  0  0  0999 V2000
    2.0303    0.8684    0.4076 C   0  0  0  0  0
    3.2797    0.2900    0.1504 C   0  0  0  0  0
    2.2402   -1.7166   -0.7597 C   0  0  0  0  0
    0.8743    0.1422    0.0753 C   0  0  0  0  0
    1.0067   -1.1208   -0.4948 C   0  0  0  0  0
    3.3805   -0.9797   -0.4229 C   0  0  0  0  0
   -1.1179   -0.5559   -0.2468 C   0  0  0  0  0
   -4.9172    0.8677    0.3832 C   0  0  0  0  0
   -6.9492    2.1580    0.9554 C   0  0  0  0  0
   -4.7640    3.2372    1.2919 C   0  0  0  0  0
   -7.3778    2.7165    2.3048 C   0  0  0  0  0
   -5.2861    3.7556    2.6259 C   0  0  0  0  0
   -3.4104    0.8162    0.3652 C   0  0  0  0  0
   -0.4527    0.4760    0.2218 N   0  0  0  0  0
   -0.2830   -1.5437   -0.6902 N   0  0  0  0  0
   -5.4933    2.0274    0.8969 N   0  0  0  0  0
    4.6653   -1.5355   -0.6687 N   0  0  0  0  0
    5.6831   -0.8694   -0.3633 O   0  0  0  0  0
   -5.5608   -0.0947   -0.0424 O   0  0  0  0  0
    4.7444   -2.6763   -1.1836 O   0  0  0  0  0
   -6.7017    3.9491    2.5663 O   0  0  0  0  0
   -2.8735   -0.7512   -0.3411 S   0  0  0  0  0
  1  2  1  0  0  0
  3  6  1  0  0  0
  4  5  1  0  0  0
  4 14  1  0  0  0
  5 15  1  0  0  0
  6 17  1  0  0  0
  7 15  1  0  0  0
  7 22  1  0  0  0
  8 16  1  0  0  0
  9 11  1  0  0  0
  9 16  1  0  0  0
 10 12  1  0  0  0
 10 16  1  0  0  0
 11 21  1  0  0  0
 12 21  1  0  0  0
 13  8  1  0  0  0
 13 22  1  0  0  0
 17 18  1  0  0  0
  1  4  2  0  0  0
  2  6  2  0  0  0
  3  5  2  0  0  0
  7 14  2  0  0  0
  8 19  2  0  0  0
 17 20  2  0  0  0
M  CHG  2  17   1  18  -1
M  END
> <rmsd>
0.511579752

$$$$
ZINC10319007


 23 25  0  0  0  0  0  0  0  0999 V2000
  -10.0525    0.4923    0.2037 C   0  0  0  0  0
   -9.3639    1.0313   -0.8830 C   0  0  0  0  0
   -9.3602    0.1371    1.3614 C   0  0  0  0  0
   -7.9830    1.2149   -0.8121 C   0  0  0  0  0
   -7.9793    0.3208    1.4324 C   0  0  0  0  0
    3.1173    0.3355    0.1195 C   0  0  0  0  0
    1.8710    0.9194    0.3541 C   0  0  0  0  0
    2.0542   -1.6803   -0.6820 C   0  0  0  0  0
   -0.5358   -1.6595   -0.6695 C   0  0  0  0  0
    0.7755   -1.1163   -0.4552 C   0  0  0  0  0
   -7.2907    0.8597    0.3456 C   0  0  0  0  0
    3.2104   -0.9506   -0.3932 C   0  0  0  0  0
    0.7074    0.1811    0.0619 C   0  0  0  0  0
   -1.5396   -0.7876   -0.3204 C   0  0  0  0  0
   -2.9521   -0.9766   -0.3933 C   0  0  0  0  0
   -5.8052    1.0571    0.4218 C   0  0  0  0  0
   -3.7638    0.0826    0.0301 N   0  0  0  0  0
    4.4861   -1.5299   -0.6266 N   0  0  0  0  0
    5.5145   -0.8616   -0.3624 O   0  0  0  0  0
   -3.5002   -2.0194   -0.8300 O   0  0  0  0  0
    4.5492   -2.6939   -1.0902 O   0  0  0  0  0
   -5.1566   -0.1171   -0.0472 O   0  0  0  0  0
   -0.9271    0.6904    0.2674 S   0  0  0  0  0
  1  2  1  0  0  0
  3  5  1  0  0  0
  4 11  1  0  0  0
  6 12  1  0  0  0
  7 13  1  0  0  0
  8 10  1  0  0  0
  9 10  1  0  0  0
 12 18  1  0  0  0
 13 23  1  0  0  0
 14 15  1  0  0  0
 14 23  1  0  0  0
 15 17  1  0  0  0
 16 11  1  0  0  0
 16 22  1  0  0  0
 17 22  1  0  0  0
 18 19  1  0  0  0
  1  3  2  0  0  0
  2  4  2  0  0  0
  5 11  2  0  0  0
  6  7  2  0  0  0
  8 12  2  0  0  0
  9 14  2  0  0  0
 10 13  2  0  0  0
 15 20  2  0  0  0
 18 21  2  0  0  0
M  CHG  2  18   1  19  -1
M  END
> <rmsd>
0.575604379

$$$$
ZINC10319007


 23 25  0  0  0  0  0  0  0  0999 V2000
   -5.4476   -1.4938    4.6880 C   0  0  0  0  0
   -6.5513   -1.6993    3.8602 C   0  0  0  0  0
   -4.4509   -0.5937    4.3109 C   0  0  0  0  0
   -6.6583   -1.0049    2.6552 C   0  0  0  0  0
   -4.5579    0.1008    3.1059 C   0  0  0  0  0
    3.1174    0.3358    0.1193 C   0  0  0  0  0
    1.8711    0.9197    0.3540 C   0  0  0  0  0
    2.0543   -1.6800   -0.6822 C   0  0  0  0  0
   -0.5357   -1.6592   -0.6696 C   0  0  0  0  0
    0.7756   -1.1160   -0.4554 C   0  0  0  0  0
   -5.6616   -0.1048    2.2781 C   0  0  0  0  0
    3.2105   -0.9503   -0.3934 C   0  0  0  0  0
    0.7075    0.1814    0.0617 C   0  0  0  0  0
   -1.5395   -0.7873   -0.3205 C   0  0  0  0  0
   -2.9520   -0.9763   -0.3935 C   0  0  0  0  0
   -5.7766    0.6421    0.9817 C   0  0  0  0  0
   -3.7637    0.0829    0.0299 N   0  0  0  0  0
    4.4862   -1.5296   -0.6268 N   0  0  0  0  0
    5.5146   -0.8613   -0.3625 O   0  0  0  0  0
   -3.5001   -2.0191   -0.8301 O   0  0  0  0  0
    4.5493   -2.6936   -1.0903 O   0  0  0  0  0
   -5.1565   -0.1168   -0.0473 O   0  0  0  0  0
   -0.9270    0.6907    0.2672 S   0  0  0  0  0
  1  2  1  0  0  0
  3  5  1  0  0  0
  4 11  1  0  0  0
  6 12  1  0  0  0
  7 13  1  0  0  0
  8 10  1  0  0  0
  9 10  1  0  0  0
 12 18  1  0  0  0
 13 23  1  0  0  0
 14 15  1  0  0  0
 14 23  1  0  0  0
 15 17  1  0  0  0
 16 11  1  0  0  0
 16 22  1  0  0  0
 17 22  1  0  0  0
 18 19  1  0  0  0
  1  3  2  0  0  0
  2  4  2  0  0  0
  5 11  2  0  0  0
  6  7  2  0  0  0
  8 12  2  0  0  0
  9 14  2  0  0  0
 10 13  2  0  0  0
 15 20  2  0  0  0
 18 21  2  0  0  0
M  CHG  2  18   1  19  -1
M  END
> <rmsd>
0.575604379

$$$$
ZINC59417519


 23 25  0  0  0  0  0  0  0  0999 V2000
   -5.5357    4.2895    1.4454 C   0  0  0  0  0
   -6.3850    4.0965    2.5350 C   0  0  0  0  0
   -4.9893    3.1897    0.7837 C   0  0  0  0  0
   -6.6878    2.8039    2.9630 C   0  0  0  0  0
    1.9475    0.8800    0.1954 C   0  0  0  0  0
    3.2122    0.3125    0.0149 C   0  0  0  0  0
    2.2136   -1.8010   -0.6297 C   0  0  0  0  0
   -5.2922    1.8971    1.2117 C   0  0  0  0  0
   -6.1414    1.7042    2.3013 C   0  0  0  0  0
    0.7915    0.1038   -0.0376 C   0  0  0  0  0
    3.3412   -1.0109   -0.3923 C   0  0  0  0  0
    0.9465   -1.2243   -0.4466 C   0  0  0  0  0
   -1.3365   -0.4549   -0.1992 C   0  0  0  0  0
   -4.6955    0.7437    0.4890 C   0  0  0  0  0
   -6.4821    0.3313    2.7812 C   0  0  0  0  0
   -0.5216    0.5297    0.0993 N   0  0  0  0  0
   -2.6924   -0.3627   -0.1628 N   0  0  0  0  0
   -3.3153    0.6961    0.4803 N   0  0  0  0  0
    4.6356   -1.5690   -0.5688 N   0  0  0  0  0
    5.6413   -0.8512   -0.3520 O   0  0  0  0  0
   -5.4348   -0.0865   -0.0336 O   0  0  0  0  0
    4.7368   -2.7642   -0.9361 O   0  0  0  0  0
   -0.6105   -1.9343   -0.6576 S   0  0  0  0  0
  1  2  1  0  0  0
  3  8  1  0  0  0
  4  9  1  0  0  0
  5 10  1  0  0  0
  6 11  1  0  0  0
  7 12  1  0  0  0
  8 14  1  0  0  0
 10 16  1  0  0  0
 11 19  1  0  0  0
 12 23  1  0  0  0
 13 17  1  0  0  0
 13 23  1  0  0  0
 14 18  1  0  0  0
 15  9  1  0  0  0
 17 18  1  0  0  0
 19 20  1  0  0  0
  1  3  2  0  0  0
  2  4  2  0  0  0
  5  6  2  0  0  0
  7 11  2  0  0  0
  8  9  2  0  0  0
 10 12  2  0  0  0
 13 16  2  0  0  0
 14 21  2  0  0  0
 19 22  2  0  0  0
M  CHG  2  19   1  20  -1
M  END
> <rmsd>
0.541173279

$$$$
ZINC59417519


 23 25  0  0  0  0  0  0  0  0999 V2000
   -6.7095    2.7174    2.9863 C   0  0  0  0  0
   -6.4395    4.0293    2.5969 C   0  0  0  0  0
   -6.1357    1.6518    2.2926 C   0  0  0  0  0
   -5.5959    4.2757    1.5138 C   0  0  0  0  0
    1.9477    0.8809    0.1941 C   0  0  0  0  0
    3.2124    0.3134    0.0140 C   0  0  0  0  0
    2.2141   -1.8008   -0.6286 C   0  0  0  0  0
   -5.2920    1.8983    1.2095 C   0  0  0  0  0
   -5.0221    3.2102    0.8201 C   0  0  0  0  0
    0.7918    0.1044   -0.0382 C   0  0  0  0  0
    3.3416   -1.0103   -0.3919 C   0  0  0  0  0
    0.9469   -1.2241   -0.4460 C   0  0  0  0  0
   -1.3362   -0.4546   -0.1993 C   0  0  0  0  0
   -4.6952    0.7443    0.4878 C   0  0  0  0  0
   -4.1231    3.5028   -0.3365 C   0  0  0  0  0
   -0.5214    0.5303    0.0983 N   0  0  0  0  0
   -2.6921   -0.3626   -0.1630 N   0  0  0  0  0
   -3.3151    0.6968    0.4792 N   0  0  0  0  0
    4.6361   -1.5685   -0.5680 N   0  0  0  0  0
    5.6417   -0.8504   -0.3518 O   0  0  0  0  0
   -5.4345   -0.0865   -0.0340 O   0  0  0  0  0
    4.7373   -2.7640   -0.9341 O   0  0  0  0  0
   -0.6100   -1.9344   -0.6564 S   0  0  0  0  0
  1  2  1  0  0  0
  3  8  1  0  0  0
  4  9  1  0  0  0
  5 10  1  0  0  0
  6 11  1  0  0  0
  7 12  1  0  0  0
  8 14  1  0  0  0
 10 16  1  0  0  0
 11 19  1  0  0  0
 12 23  1  0  0  0
 13 17  1  0  0  0
 13 23  1  0  0  0
 14 18  1  0  0  0
 15  9  1  0  0  0
 17 18  1  0  0  0
 19 20  1  0  0  0
  1  3  2  0  0  0
  2  4  2  0  0  0
  5  6  2  0  0  0
  7 11  2  0  0  0
  8  9  2  0  0  0
 10 12  2  0  0  0
 13 16  2  0  0  0
 14 21  2  0  0  0
 19 22  2  0  0  0
M  CHG  2  19   1  20  -1
M  END
> <rmsd>
0.541126788

$$$$
ZINC81259451


 24 25  0  0  0  0  0  0  0  0999 V2000
    2.1279    1.4084    0.2380 C   0  0  0  0  0
    3.2871    0.6580    0.0409 C   0  0  0  0  0
    1.9437   -1.2958   -0.4227 C   0  0  0  0  0
    0.8765    0.8066    0.1049 C   0  0  0  0  0
    0.7844   -0.5455   -0.2254 C   0  0  0  0  0
   -3.5531    1.3479    0.8168 C   0  0  0  0  0
    3.1951   -0.6940   -0.2895 C   0  0  0  0  0
   -4.0995    0.0506    0.8329 C   0  0  0  0  0
   -4.2829    2.0160   -0.1359 C   0  0  0  0  0
   -0.3412    1.6293    0.3224 C   0  0  0  0  0
   -0.5433   -1.2145   -0.3729 C   0  0  0  0  0
   -3.6950   -1.0900    1.6735 C   0  0  0  0  0
   -4.2035    3.4048   -0.6269 C   0  0  0  0  0
   -1.6020    2.3493    4.0279 C   0  0  0  0  0
   -6.1821    1.3395   -1.6361 C   0  0  0  0  0
   -2.7349    1.8125    3.1616 C   0  0  0  0  0
   -2.4154    1.8890    1.6589 C   0  0  0  0  0
   -5.0994   -0.0986   -0.0401 N   0  0  0  0  0
   -5.1871    1.1136   -0.6136 N   0  0  0  0  0
   -1.1802    1.2077    1.3412 N   0  0  0  0  0
    4.3751   -1.4576   -0.4901 N   0  0  0  0  0
    5.4908   -0.8969   -0.3654 O   0  0  0  0  0
   -0.5473    2.5993   -0.4022 O   0  0  0  0  0
    4.2704   -2.6724   -0.7865 O   0  0  0  0  0
  1  4  1  0  0  0
  2  7  1  0  0  0
  3  5  1  0  0  0
  4 10  1  0  0  0
  6  8  1  0  0  0
  7 21  1  0  0  0
  9 19  1  0  0  0
 10 20  1  0  0  0
 11  5  1  0  0  0
 12  8  1  0  0  0
 13  9  1  0  0  0
 14 16  1  0  0  0
 15 19  1  0  0  0
 16 17  1  0  0  0
 17  6  1  0  0  0
 17 20  1  0  0  0
 19 18  1  0  0  0
 21 22  1  0  0  0
  1  2  2  0  0  0
  3  7  2  0  0  0
  4  5  2  0  0  0
  6  9  2  0  0  0
  8 18  2  0  0  0
 10 23  2  0  0  0
 21 24  2  0  0  0
M  CHG  2  21   1  22  -1
M  END
> <rmsd>
0.564440608

$$$$
ZINC72068571


 24 25  0  0  0  0  0  0  0  0999 V2000
    2.2074    1.2638   -0.2727 C   0  0  0  0  0
    3.4245    0.5837   -0.3160 C   0  0  0  0  0
   -4.5717    3.0647    1.4250 C   0  0  0  0  0
   -3.4020    3.6795    1.8715 C   0  0  0  0  0
    2.2566   -1.5201   -0.0976 C   0  0  0  0  0
   -3.2983    1.1198    0.7667 C   0  0  0  0  0
    1.0149    0.5521   -0.1419 C   0  0  0  0  0
    1.0395   -0.8399   -0.0544 C   0  0  0  0  0
    3.4490   -0.8082   -0.2284 C   0  0  0  0  0
   -4.5199    1.7848    0.8727 C   0  0  0  0  0
   -2.1804    3.0144    1.7656 C   0  0  0  0  0
   -2.1286    1.7346    1.2132 C   0  0  0  0  0
   -0.2415    1.2878   -0.0975 C   0  0  0  0  0
   -0.2232   -1.6259    0.0876 C   0  0  0  0  0
   -1.1853    4.9332    2.7573 C   0  0  0  0  0
    4.6879   -1.5004   -0.2724 N   0  0  0  0  0
   -5.7105    1.1594    0.4178 N   0  0  0  0  0
    5.7490   -0.8409   -0.3904 O   0  0  0  0  0
   -6.7991    1.7751    0.5218 O   0  0  0  0  0
   -0.6505    2.0249   -1.0040 O   0  0  0  0  0
    4.6882   -2.7526   -0.1919 O   0  0  0  0  0
   -5.6423    0.0078   -0.0760 O   0  0  0  0  0
   -0.9111    1.0578    1.1015 O   0  0  0  0  0
   -1.0451    3.6254    2.2062 O   0  0  0  0  0
  1  7  1  0  0  0
  2  9  1  0  0  0
  3 10  1  0  0  0
  4 11  1  0  0  0
  5  8  1  0  0  0
  6 12  1  0  0  0
  7 13  1  0  0  0
  9 16  1  0  0  0
 10 17  1  0  0  0
 11 24  1  0  0  0
 12 23  1  0  0  0
 13 23  1  0  0  0
 14  8  1  0  0  0
 15 24  1  0  0  0
 16 18  1  0  0  0
 17 19  1  0  0  0
  1  2  2  0  0  0
  3  4  2  0  0  0
  5  9  2  0  0  0
  6 10  2  0  0  0
  7  8  2  0  0  0
 11 12  2  0  0  0
 13 20  2  0  0  0
 16 21  2  0  0  0
 17 22  2  0  0  0
M  CHG  4  16   1  17   1  18  -1  19  -1
M  END
> <rmsd>
0.548700213

$$$$
ZINC27215030


 24 25  0  0  0  0  0  0  0  0999 V2000
    2.1846    1.3358    0.1767 C   0  0  0  0  0
    3.3678    0.6149    0.0153 C   0  0  0  0  0
    2.0901   -1.3549   -0.5538 C   0  0  0  0  0
   -5.1487    1.2373    0.2257 C   0  0  0  0  0
   -4.0543    0.2123    1.8341 C   0  0  0  0  0
    0.9069   -0.6342   -0.3924 C   0  0  0  0  0
   -4.3336    1.4671    1.3503 C   0  0  0  0  0
    0.9542    0.7112   -0.0271 C   0  0  0  0  0
    3.3206   -0.7304   -0.3500 C   0  0  0  0  0
   -0.3512    2.7990    0.5007 C   0  0  0  0  0
   -0.3972   -1.3287   -0.6164 C   0  0  0  0  0
   -1.9663    4.7151    0.3185 C   0  0  0  0  0
   -4.6951   -2.0983    1.1065 C   0  0  0  0  0
   -1.9266    3.9153    2.9647 C   0  0  0  0  0
   -3.8732    2.7851    1.8997 C   0  0  0  0  0
   -1.8110    3.2240    0.5750 C   0  0  0  0  0
   -5.3724   -0.0613    0.0078 N   0  0  0  0  0
   -4.6938   -0.6588    1.0021 N   0  0  0  0  0
   -0.2351    1.4595    0.1421 N   0  0  0  0  0
    4.5254   -1.4638   -0.5141 N   0  0  0  0  0
   -2.3734    2.9236    1.9225 N   0  0  0  0  0
    5.6214   -0.8827   -0.3257 O   0  0  0  0  0
    0.5598    3.5854    0.7424 O   0  0  0  0  0
    4.4611   -2.6732   -0.8426 O   0  0  0  0  0
  1  8  1  0  0  0
  2  9  1  0  0  0
  3  6  1  0  0  0
  4  7  1  0  0  0
  5 18  1  0  0  0
  8 19  1  0  0  0
  9 20  1  0  0  0
 10 19  1  0  0  0
 11  6  1  0  0  0
 12 16  1  0  0  0
 13 18  1  0  0  0
 14 21  1  0  0  0
 15  7  1  0  0  0
 15 21  1  0  0  0
 16 10  1  0  0  0
 16 21  1  0  0  0
 18 17  1  0  0  0
 20 22  1  0  0  0
  1  2  2  0  0  0
  3  9  2  0  0  0
  4 17  2  0  0  0
  5  7  2  0  0  0
  6  8  2  0  0  0
 10 23  2  0  0  0
 20 24  2  0  0  0
M  CHG  3  20   1  21   1  22  -1
M  END
> <rmsd>
0.562901497

$$$$
ZINC52049114


 24 26  0  0  0  0  0  0  0  0999 V2000
    2.2119    1.2641   -0.2351 C   0  0  0  0  0
    3.4267    0.5810   -0.2917 C   0  0  0  0  0
   -4.2881    1.5962   -3.0994 C   0  0  0  0  0
   -2.3440    2.8540   -2.4040 C   0  0  0  0  0
    2.2535   -1.5220   -0.0959 C   0  0  0  0  0
   -4.5960    1.3218   -1.7629 C   0  0  0  0  0
   -2.6506    2.5952   -1.0687 C   0  0  0  0  0
    1.0178    0.5541   -0.1088 C   0  0  0  0  0
    3.4475   -0.8120   -0.2222 C   0  0  0  0  0
   -3.7804    1.8406   -0.7501 C   0  0  0  0  0
   -3.1632    2.3582   -3.4178 C   0  0  0  0  0
    1.0386   -0.8388   -0.0392 C   0  0  0  0  0
   -5.8041    0.5121   -1.4027 C   0  0  0  0  0
   -5.3154    1.0428    0.8240 C   0  0  0  0  0
   -1.7600    3.1416   -0.0015 C   0  0  0  0  0
   -0.3066    2.6687   -0.1172 C   0  0  0  0  0
   -0.1904    1.2364   -0.0527 N   0  0  0  0  0
    4.6842   -1.5074   -0.2800 N   0  0  0  0  0
    5.7468   -0.8498   -0.3937 O   0  0  0  0  0
    4.6808   -2.7605   -0.2154 O   0  0  0  0  0
   -4.0279    1.6214    0.5811 O   0  0  0  0  0
   -5.6690   -0.0023   -0.0792 O   0  0  0  0  0
   -2.8690    2.6129   -4.6996 F   0  0  0  0  0
   -0.1031   -1.5311    0.0816 F   0  0  0  0  0
  1  2  1  0  0  0
  3 11  1  0  0  0
  4  7  1  0  0  0
  5  9  1  0  0  0
  6 10  1  0  0  0
  8 12  1  0  0  0
  8 17  1  0  0  0
  9 18  1  0  0  0
 10 21  1  0  0  0
 11 23  1  0  0  0
 12 24  1  0  0  0
 13  6  1  0  0  0
 13 22  1  0  0  0
 14 21  1  0  0  0
 14 22  1  0  0  0
 15  7  1  0  0  0
 15 16  1  0  0  0
 16 17  1  0  0  0
 18 19  1  0  0  0
  1  8  2  0  0  0
  2  9  2  0  0  0
  3  6  2  0  0  0
  4 11  2  0  0  0
  5 12  2  0  0  0
  7 10  2  0  0  0
 18 20  2  0  0  0
M  CHG  2  18   1  19  -1
M  END
> <rmsd>
0.515294492

$$$$
ZINC41880524


 23 24  0  0  0  0  0  0  0  0999 V2000
    2.2997    1.3399   -0.1451 C   0  0  0  0  0
    3.4963    0.6278   -0.2257 C   0  0  0  0  0
   -5.3518    2.0776    0.8335 C   0  0  0  0  0
    2.2619   -1.4490   -0.2001 C   0  0  0  0  0
   -5.9428    0.8067    0.9645 C   0  0  0  0  0
    1.0842    0.6578   -0.0919 C   0  0  0  0  0
    3.4775   -0.7666   -0.2533 C   0  0  0  0  0
    1.0653   -0.7367   -0.1194 C   0  0  0  0  0
   -4.6663    2.0167   -0.3552 C   0  0  0  0  0
   -0.2238    2.7840    0.0226 C   0  0  0  0  0
   -1.6541    3.2242    0.1101 C   0  0  0  0  0
   -4.3663    0.2116   -2.0778 C   0  0  0  0  0
   -3.8287    3.0409   -1.0647 C   0  0  0  0  0
   -5.6579   -0.0025   -0.0594 N   0  0  0  0  0
   -4.8804    0.7619   -0.8450 N   0  0  0  0  0
   -0.1101    1.4104   -0.0111 N   0  0  0  0  0
   -2.4167    2.7649   -0.9397 N   0  0  0  0  0
    4.6958   -1.4910   -0.3356 N   0  0  0  0  0
    5.7780   -0.8573   -0.3826 O   0  0  0  0  0
    0.6195    3.6641   -0.0217 O   0  0  0  0  0
   -1.9869    3.9015    1.0694 O   0  0  0  0  0
    4.6576   -2.7450   -0.3588 O   0  0  0  0  0
   -0.4178   -1.6207   -0.0539 Cl  0  0  0  0  0
  1  6  1  0  0  0
  2  7  1  0  0  0
  3  5  1  0  0  0
  4  8  1  0  0  0
  6 16  1  0  0  0
  7 18  1  0  0  0
  8 23  1  0  0  0
  9 15  1  0  0  0
 10 11  1  0  0  0
 10 16  1  0  0  0
 11 17  1  0  0  0
 12 15  1  0  0  0
 13  9  1  0  0  0
 13 17  1  0  0  0
 15 14  1  0  0  0
 18 19  1  0  0  0
  1  2  2  0  0  0
  3  9  2  0  0  0
  4  7  2  0  0  0
  5 14  2  0  0  0
  6  8  2  0  0  0
 10 20  2  0  0  0
 11 21  2  0  0  0
 18 22  2  0  0  0
M  CHG  2  18   1  19  -1
M  END
> <rmsd>
0.559802711

$$$$
ZINC59417528


 24 26  0  0  0  0  0  0  0  0999 V2000
   -8.3158    6.3869   -0.3742 C   0  0  0  0  0
   -7.0083    6.1988   -0.8220 C   0  0  0  0  0
   -9.0399    5.3096    0.1364 C   0  0  0  0  0
   -6.4250    4.9333   -0.7594 C   0  0  0  0  0
   -8.4567    4.0441    0.1991 C   0  0  0  0  0
    1.9493    0.9052    0.0940 C   0  0  0  0  0
    3.2146    0.3299   -0.0549 C   0  0  0  0  0
    2.2191   -1.8308   -0.5233 C   0  0  0  0  0
   -7.1492    3.8560   -0.2488 C   0  0  0  0  0
    0.7946    0.1090   -0.0663 C   0  0  0  0  0
    3.3455   -1.0205   -0.3595 C   0  0  0  0  0
    0.9513   -1.2463   -0.3725 C   0  0  0  0  0
   -1.3325   -0.4682   -0.1623 C   0  0  0  0  0
   -6.5329    2.5189   -0.1828 C   0  0  0  0  0
   -5.2127    2.2861   -0.2142 C   0  0  0  0  0
   -4.7019    0.8889   -0.1330 C   0  0  0  0  0
   -0.5191    0.5395    0.0506 N   0  0  0  0  0
   -2.6884   -0.3785   -0.1193 N   0  0  0  0  0
   -3.3232    0.8521   -0.1806 N   0  0  0  0  0
    4.6405   -1.5860   -0.5054 N   0  0  0  0  0
    5.6451   -0.8498   -0.3552 O   0  0  0  0  0
   -5.4441   -0.0835   -0.0395 O   0  0  0  0  0
    4.7433   -2.8057   -0.7799 O   0  0  0  0  0
   -0.6046   -1.9762   -0.5120 S   0  0  0  0  0
  1  2  1  0  0  0
  3  5  1  0  0  0
  4  9  1  0  0  0
  6 10  1  0  0  0
  7 11  1  0  0  0
  8 12  1  0  0  0
  9 14  1  0  0  0
 10 17  1  0  0  0
 11 20  1  0  0  0
 12 24  1  0  0  0
 13 18  1  0  0  0
 13 24  1  0  0  0
 15 16  1  0  0  0
 16 19  1  0  0  0
 18 19  1  0  0  0
 20 21  1  0  0  0
  1  3  2  0  0  0
  2  4  2  0  0  0
  5  9  2  0  0  0
  6  7  2  0  0  0
  8 11  2  0  0  0
 10 12  2  0  0  0
 13 17  2  0  0  0
 14 15  2  0  0  0
 16 22  2  0  0  0
 20 23  2  0  0  0
M  CHG  2  20   1  21  -1
M  END
> <rmsd>
0.537127614

$$$$
ZINC59417528


 24 26  0  0  0  0  0  0  0  0999 V2000
   -6.1306    5.5769    4.7010 C   0  0  0  0  0
   -6.1364    5.6285    3.3070 C   0  0  0  0  0
   -5.7162    4.4162    5.3542 C   0  0  0  0  0
   -5.7276    4.5194    2.5665 C   0  0  0  0  0
   -5.3076    3.3071    4.6137 C   0  0  0  0  0
    1.9500    0.8823    0.1821 C   0  0  0  0  0
    3.2151    0.3143    0.0060 C   0  0  0  0  0
    2.2183   -1.8053   -0.6205 C   0  0  0  0  0
   -5.3133    3.3587    3.2198 C   0  0  0  0  0
    0.7947    0.1030   -0.0440 C   0  0  0  0  0
    3.3452   -1.0123   -0.3902 C   0  0  0  0  0
    0.9506   -1.2283   -0.4418 C   0  0  0  0  0
   -1.3329   -0.4588   -0.2002 C   0  0  0  0  0
   -4.8817    2.1868    2.4373 C   0  0  0  0  0
   -5.1939    1.9727    1.1509 C   0  0  0  0  0
   -4.6938    0.7524    0.4576 C   0  0  0  0  0
   -0.5187    0.5290    0.0898 N   0  0  0  0  0
   -2.6889   -0.3676   -0.1641 N   0  0  0  0  0
   -3.3146    0.7070    0.4482 N   0  0  0  0  0
    4.6401   -1.5708   -0.5623 N   0  0  0  0  0
    5.6452   -0.8502   -0.3520 O   0  0  0  0  0
   -5.4440   -0.0844   -0.0343 O   0  0  0  0  0
    4.7422   -2.7690   -0.9196 O   0  0  0  0  0
   -0.6058   -1.9415   -0.6463 S   0  0  0  0  0
  1  2  1  0  0  0
  3  5  1  0  0  0
  4  9  1  0  0  0
  6 10  1  0  0  0
  7 11  1  0  0  0
  8 12  1  0  0  0
  9 14  1  0  0  0
 10 17  1  0  0  0
 11 20  1  0  0  0
 12 24  1  0  0  0
 13 18  1  0  0  0
 13 24  1  0  0  0
 15 16  1  0  0  0
 16 19  1  0  0  0
 18 19  1  0  0  0
 20 21  1  0  0  0
  1  3  2  0  0  0
  2  4  2  0  0  0
  5  9  2  0  0  0
  6  7  2  0  0  0
  8 11  2  0  0  0
 10 12  2  0  0  0
 13 17  2  0  0  0
 14 15  2  0  0  0
 16 22  2  0  0  0
 20 23  2  0  0  0
M  CHG  2  20   1  21  -1
M  END
> <rmsd>
0.540763021

$$$$
ZINC39412359


 22 23  0  0  0  0  0  0  0  0999 V2000
   -6.7147    1.6840   -3.8814 C   0  0  0  0  0
   -6.5738    3.8953   -2.9184 C   0  0  0  0  0
   -6.1479    1.1449   -2.7266 C   0  0  0  0  0
   -6.0071    3.3562   -1.7635 C   0  0  0  0  0
   -6.9278    3.0592   -3.9773 C   0  0  0  0  0
   -5.7941    1.9810   -1.6676 C   0  0  0  0  0
    3.3679   -0.7875   -0.1591 C   0  0  0  0  0
    1.2973   -0.5010    0.0573 C   0  0  0  0  0
   -2.5467    0.8913    0.3641 C   0  0  0  0  0
   -3.3945    1.3491   -0.5647 C   0  0  0  0  0
   -7.5317    3.6362   -5.2127 C   0  0  0  0  0
   -1.0614    0.8891    0.1872 C   0  0  0  0  0
    3.1695    0.5047   -0.2760 N   0  0  0  0  0
    1.8075    0.6931   -0.1335 N   0  0  0  0  0
    4.5712   -1.4844   -0.2282 N   0  0  0  0  0
    5.6571   -0.8597   -0.4271 O   0  0  0  0  0
    4.5843   -2.7454   -0.0920 O   0  0  0  0  0
   -5.3600    2.2126    0.8915 O   0  0  0  0  0
   -5.5238   -0.0828   -0.1203 O   0  0  0  0  0
    2.2257   -1.4964    0.0547 O   0  0  0  0  0
   -0.4267   -0.8050    0.2959 S   0  0  0  0  0
   -5.0740    1.2972   -0.2010 S   0  0  0  0  0
  1  5  1  0  0  0
  2  4  1  0  0  0
  3  6  1  0  0  0
  7 15  1  0  0  0
  7 20  1  0  0  0
  8 20  1  0  0  0
  8 21  1  0  0  0
 11  5  1  0  0  0
 12  9  1  0  0  0
 12 21  1  0  0  0
 13 14  1  0  0  0
 15 16  1  0  0  0
 22  6  1  0  0  0
 22 10  1  0  0  0
  1  3  2  0  0  0
  2  5  2  0  0  0
  4  6  2  0  0  0
  7 13  2  0  0  0
  8 14  2  0  0  0
  9 10  2  0  0  0
 15 17  2  0  0  0
 22 18  2  0  0  0
 22 19  2  0  0  0
M  CHG  2  15   1  16  -1
M  END
> <rmsd>
0.485894412

$$$$
ZINC80722309


 25 26  0  0  0  0  0  0  0  0999 V2000
    2.1828    1.3351    0.1906 C   0  0  0  0  0
    3.3652    0.6138    0.0252 C   0  0  0  0  0
    2.0855   -1.3486   -0.5650 C   0  0  0  0  0
    0.9031   -0.6273   -0.3997 C   0  0  0  0  0
   -4.3380    1.4676    1.3491 C   0  0  0  0  0
    0.9518    0.7146   -0.0218 C   0  0  0  0  0
    3.3165   -0.7280   -0.3526 C   0  0  0  0  0
   -5.1488    1.2381    0.2241 C   0  0  0  0  0
   -4.0652    0.2091    1.8161 C   0  0  0  0  0
   -0.3512    2.7999    0.5214 C   0  0  0  0  0
   -0.4017   -1.3173   -0.6333 C   0  0  0  0  0
   -5.7466    2.2329   -0.6824 C   0  0  0  0  0
   -3.2858   -0.3123    2.9465 C   0  0  0  0  0
   -1.9626    4.7204    0.3524 C   0  0  0  0  0
   -1.9308    3.8969    2.9914 C   0  0  0  0  0
   -3.8767    2.7798    1.9115 C   0  0  0  0  0
   -1.8104    3.2268    0.5959 C   0  0  0  0  0
   -5.3623   -0.0632    0.0096 N   0  0  0  0  0
   -0.2366    1.4634    0.1511 N   0  0  0  0  0
    4.5205   -1.4620   -0.5206 N   0  0  0  0  0
   -2.3768    2.9153    1.9393 N   0  0  0  0  0
    5.6170   -0.8845   -0.3241 O   0  0  0  0  0
    0.5606    3.5825    0.7723 O   0  0  0  0  0
    4.4549   -2.6679   -0.8607 O   0  0  0  0  0
   -4.6708   -0.7130    1.0249 O   0  0  0  0  0
  1  6  1  0  0  0
  2  7  1  0  0  0
  3  4  1  0  0  0
  5  8  1  0  0  0
  6 19  1  0  0  0
  7 20  1  0  0  0
  9 25  1  0  0  0
 10 19  1  0  0  0
 11  4  1  0  0  0
 12  8  1  0  0  0
 13  9  1  0  0  0
 14 17  1  0  0  0
 15 21  1  0  0  0
 16  5  1  0  0  0
 16 21  1  0  0  0
 17 10  1  0  0  0
 17 21  1  0  0  0
 18 25  1  0  0  0
 20 22  1  0  0  0
  1  2  2  0  0  0
  3  7  2  0  0  0
  4  6  2  0  0  0
  5  9  2  0  0  0
  8 18  2  0  0  0
 10 23  2  0  0  0
 20 24  2  0  0  0
M  CHG  3  20   1  21   1  22  -1
M  END
> <rmsd>
0.565712154

$$$$
ZINC56065487


 24 26  0  0  0  0  0  0  0  0999 V2000
   -3.6865    4.4282    0.0666 C   0  0  0  0  0
   -4.7851    3.6116   -0.2005 C   0  0  0  0  0
    3.3839    0.5145   -0.4763 C   0  0  0  0  0
    2.1461    1.1573   -0.4725 C   0  0  0  0  0
   -2.4864    3.8651    0.4941 C   0  0  0  0  0
   -3.4000    0.2561    0.5453 C   0  0  0  0  0
    2.3238   -1.5313    0.2504 C   0  0  0  0  0
   -4.5262   -0.5022    0.2642 C   0  0  0  0  0
   -5.7561    1.3555   -0.2936 C   0  0  0  0  0
   -4.6888    2.2194   -0.0404 C   0  0  0  0  0
   -3.4755    1.6454    0.3921 C   0  0  0  0  0
    3.4728   -0.8298   -0.1148 C   0  0  0  0  0
    0.9971    0.4560   -0.1072 C   0  0  0  0  0
    1.0859   -0.8883    0.2543 C   0  0  0  0  0
   -2.3794    2.4828    0.6565 C   0  0  0  0  0
   -5.7033    0.0118   -0.1517 N   0  0  0  0  0
    4.7328   -1.4844   -0.1191 N   0  0  0  0  0
    5.7541   -0.8354   -0.4512 O   0  0  0  0  0
    4.7908   -2.6941    0.2095 O   0  0  0  0  0
   -0.0091    3.0379    1.4769 O   0  0  0  0  0
   -1.0984    0.8759    2.2270 O   0  0  0  0  0
   -0.2214    1.0904   -0.1042 O   0  0  0  0  0
   -0.0145   -1.5674    0.6062 F   0  0  0  0  0
   -0.8256    1.8684    1.2002 S   0  0  0  0  0
  1  2  1  0  0  0
  3 12  1  0  0  0
  4 13  1  0  0  0
  5 15  1  0  0  0
  6 11  1  0  0  0
  7 14  1  0  0  0
  8 16  1  0  0  0
  9 10  1  0  0  0
 10 11  1  0  0  0
 12 17  1  0  0  0
 13 22  1  0  0  0
 14 23  1  0  0  0
 17 18  1  0  0  0
 24 15  1  0  0  0
 24 22  1  0  0  0
  1  5  2  0  0  0
  2 10  2  0  0  0
  3  4  2  0  0  0
  6  8  2  0  0  0
  7 12  2  0  0  0
  9 16  2  0  0  0
 11 15  2  0  0  0
 13 14  2  0  0  0
 17 19  2  0  0  0
 24 20  2  0  0  0
 24 21  2  0  0  0
M  CHG  2  17   1  18  -1
M  END
> <rmsd>
0.580351114

$$$$
ZINC59417529


 23 25  0  0  0  0  0  0  0  0999 V2000
   -5.5344    3.1181    3.2814 C   0  0  0  0  0
   -6.3708    4.0344    2.6440 C   0  0  0  0  0
   -4.9950    2.0502    2.5643 C   0  0  0  0  0
    1.9476    0.8807    0.1940 C   0  0  0  0  0
    3.2122    0.3130    0.0140 C   0  0  0  0  0
   -6.6681    3.8828    1.2896 C   0  0  0  0  0
    2.2138   -1.8010   -0.6287 C   0  0  0  0  0
   -5.2921    1.8985    1.2099 C   0  0  0  0  0
    0.7916    0.1042   -0.0382 C   0  0  0  0  0
    3.3414   -1.0105   -0.3920 C   0  0  0  0  0
    0.9466   -1.2242   -0.4460 C   0  0  0  0  0
   -6.1287    2.8148    0.5725 C   0  0  0  0  0
   -1.3364   -0.4547   -0.1992 C   0  0  0  0  0
   -4.6954    0.7445    0.4882 C   0  0  0  0  0
   -0.5215    0.5302    0.0985 N   0  0  0  0  0
   -2.6923   -0.3625   -0.1627 N   0  0  0  0  0
   -3.3152    0.6969    0.4794 N   0  0  0  0  0
    4.6358   -1.5689   -0.5681 N   0  0  0  0  0
    5.6414   -0.8508   -0.3519 O   0  0  0  0  0
   -5.4347   -0.0862   -0.0337 O   0  0  0  0  0
    4.7370   -2.7643   -0.9344 O   0  0  0  0  0
   -0.6103   -1.9345   -0.6563 S   0  0  0  0  0
   -6.5228    2.6631   -1.1022 Cl  0  0  0  0  0
  1  2  1  0  0  0
  3  8  1  0  0  0
  4  9  1  0  0  0
  5 10  1  0  0  0
  6 12  1  0  0  0
  7 11  1  0  0  0
  8 14  1  0  0  0
  9 15  1  0  0  0
 10 18  1  0  0  0
 11 22  1  0  0  0
 12 23  1  0  0  0
 13 16  1  0  0  0
 13 22  1  0  0  0
 14 17  1  0  0  0
 16 17  1  0  0  0
 18 19  1  0  0  0
  1  3  2  0  0  0
  2  6  2  0  0  0
  4  5  2  0  0  0
  7 10  2  0  0  0
  8 12  2  0  0  0
  9 11  2  0  0  0
 13 15  2  0  0  0
 14 20  2  0  0  0
 18 21  2  0  0  0
M  CHG  2  18   1  19  -1
M  END
> <rmsd>
0.541209698

$$$$
ZINC59417529


 23 25  0  0  0  0  0  0  0  0999 V2000
   -5.5259    4.2953    1.4066 C   0  0  0  0  0
   -6.3660    4.1230    2.5067 C   0  0  0  0  0
   -4.9891    3.1830    0.7583 C   0  0  0  0  0
    1.9475    0.8809    0.1942 C   0  0  0  0  0
    3.2122    0.3131    0.0141 C   0  0  0  0  0
   -6.6692    2.8386    2.9584 C   0  0  0  0  0
    2.2137   -1.8008   -0.6285 C   0  0  0  0  0
   -5.2922    1.8986    1.2101 C   0  0  0  0  0
    0.7916    0.1044   -0.0380 C   0  0  0  0  0
    3.3413   -1.0104   -0.3919 C   0  0  0  0  0
    0.9466   -1.2240   -0.4458 C   0  0  0  0  0
   -6.1322    1.7264    2.3102 C   0  0  0  0  0
   -1.3364   -0.4545   -0.1991 C   0  0  0  0  0
   -4.6954    0.7446    0.4884 C   0  0  0  0  0
   -0.5215    0.5303    0.0986 N   0  0  0  0  0
   -2.6923   -0.3624   -0.1626 N   0  0  0  0  0
   -3.3152    0.6970    0.4796 N   0  0  0  0  0
    4.6358   -1.5687   -0.5679 N   0  0  0  0  0
    5.6414   -0.8506   -0.3518 O   0  0  0  0  0
   -5.4348   -0.0861   -0.0335 O   0  0  0  0  0
    4.7370   -2.7642   -0.9342 O   0  0  0  0  0
   -0.6104   -1.9343   -0.6562 S   0  0  0  0  0
   -6.5321    0.1540    2.9024 Cl  0  0  0  0  0
  1  2  1  0  0  0
  3  8  1  0  0  0
  4  9  1  0  0  0
  5 10  1  0  0  0
  6 12  1  0  0  0
  7 11  1  0  0  0
  8 14  1  0  0  0
  9 15  1  0  0  0
 10 18  1  0  0  0
 11 22  1  0  0  0
 12 23  1  0  0  0
 13 16  1  0  0  0
 13 22  1  0  0  0
 14 17  1  0  0  0
 16 17  1  0  0  0
 18 19  1  0  0  0
  1  3  2  0  0  0
  2  6  2  0  0  0
  4  5  2  0  0  0
  7 10  2  0  0  0
  8 12  2  0  0  0
  9 11  2  0  0  0
 13 15  2  0  0  0
 14 20  2  0  0  0
 18 21  2  0  0  0
M  CHG  2  18   1  19  -1
M  END
> <rmsd>
0.541209638

$$$$
ZINC59417529


 23 25  0  0  0  0  0  0  0  0999 V2000
   -6.7714    3.8397   -1.2007 C   0  0  0  0  0
   -6.4852    4.7831   -0.2139 C   0  0  0  0  0
   -6.1821    2.5763   -1.1494 C   0  0  0  0  0
    1.9466    0.9037    0.1095 C   0  0  0  0  0
    3.2115    0.3290   -0.0446 C   0  0  0  0  0
   -5.6099    4.4633    0.8239 C   0  0  0  0  0
    2.2146   -1.8255   -0.5377 C   0  0  0  0  0
   -5.3068    2.2565   -0.1116 C   0  0  0  0  0
    0.7913    0.1102   -0.0605 C   0  0  0  0  0
    3.3415   -1.0181   -0.3640 C   0  0  0  0  0
    0.9471   -1.2416   -0.3815 C   0  0  0  0  0
   -5.0207    3.2001    0.8751 C   0  0  0  0  0
   -1.3362   -0.4642   -0.1647 C   0  0  0  0  0
   -4.7024    0.8989   -0.1001 C   0  0  0  0  0
   -0.5220    0.5405    0.0600 N   0  0  0  0  0
   -2.6920   -0.3737   -0.1218 N   0  0  0  0  0
   -3.3226    0.8610   -0.1458 N   0  0  0  0  0
    4.6362   -1.5830   -0.5150 N   0  0  0  0  0
    5.6413   -0.8493   -0.3559 O   0  0  0  0  0
   -5.4350   -0.0853   -0.0389 O   0  0  0  0  0
    4.7383   -2.7997   -0.8029 O   0  0  0  0  0
   -0.6092   -1.9687   -0.5303 S   0  0  0  0  0
   -3.9419    2.8454    2.1765 Cl  0  0  0  0  0
  1  2  1  0  0  0
  3  8  1  0  0  0
  4  9  1  0  0  0
  5 10  1  0  0  0
  6 12  1  0  0  0
  7 11  1  0  0  0
  8 14  1  0  0  0
  9 15  1  0  0  0
 10 18  1  0  0  0
 11 22  1  0  0  0
 12 23  1  0  0  0
 13 16  1  0  0  0
 13 22  1  0  0  0
 14 17  1  0  0  0
 16 17  1  0  0  0
 18 19  1  0  0  0
  1  3  2  0  0  0
  2  6  2  0  0  0
  4  5  2  0  0  0
  7 10  2  0  0  0
  8 12  2  0  0  0
  9 11  2  0  0  0
 13 15  2  0  0  0
 14 20  2  0  0  0
 18 21  2  0  0  0
M  CHG  2  18   1  19  -1
M  END
> <rmsd>
0.537755251

$$$$
ZINC80914566


 24 25  0  0  0  0  0  0  0  0999 V2000
   -3.8349    0.4013    2.1858 C   0  0  0  0  0
    2.2080    1.3264   -0.0026 C   0  0  0  0  0
    3.4031    0.6160   -0.1151 C   0  0  0  0  0
   -4.2453   -0.8871    1.8619 C   0  0  0  0  0
    2.1576   -1.4357   -0.3915 C   0  0  0  0  0
   -5.0772    1.2089    0.3255 C   0  0  0  0  0
   -4.2543    1.4748    1.4080 C   0  0  0  0  0
    0.9625   -0.7253   -0.2789 C   0  0  0  0  0
    0.9877    0.6557   -0.0844 C   0  0  0  0  0
    3.3780   -0.7650   -0.3096 C   0  0  0  0  0
   -5.0688   -1.0472    0.7591 C   0  0  0  0  0
   -0.3510    2.7653    0.2262 C   0  0  0  0  0
   -0.3303   -1.4694   -0.3698 C   0  0  0  0  0
   -1.8998    4.2309    2.5347 C   0  0  0  0  0
   -3.8291    2.8768    1.7315 C   0  0  0  0  0
   -1.8128    3.1452    0.2951 C   0  0  0  0  0
   -5.4968   -0.0288   -0.0202 N   0  0  0  0  0
   -0.2139    1.3942    0.0322 N   0  0  0  0  0
    4.5949   -1.4878   -0.4238 N   0  0  0  0  0
   -2.3387    3.0620    1.6997 N   0  0  0  0  0
    5.6815   -0.8648   -0.3470 O   0  0  0  0  0
    0.5428    3.5988    0.3300 O   0  0  0  0  0
    4.5505   -2.7294   -0.5983 O   0  0  0  0  0
   -5.6243   -2.5994    0.2851 Cl  0  0  0  0  0
  1  7  1  0  0  0
  2  9  1  0  0  0
  3 10  1  0  0  0
  4 11  1  0  0  0
  5  8  1  0  0  0
  6 17  1  0  0  0
  9 18  1  0  0  0
 10 19  1  0  0  0
 11 24  1  0  0  0
 12 18  1  0  0  0
 13  8  1  0  0  0
 14 20  1  0  0  0
 15  7  1  0  0  0
 15 20  1  0  0  0
 16 12  1  0  0  0
 16 20  1  0  0  0
 19 21  1  0  0  0
  1  4  2  0  0  0
  2  3  2  0  0  0
  5 10  2  0  0  0
  6  7  2  0  0  0
  8  9  2  0  0  0
 11 17  2  0  0  0
 12 22  2  0  0  0
 19 23  2  0  0  0
M  CHG  3  19   1  20   1  21  -1
M  END
> <rmsd>
0.537806451

$$$$
ZINC09704944


 26 28  0  0  0  0  0  0  0  0999 V2000
   -2.3559    2.5219    3.8083 C   0  0  0  0  0
   -2.6112    2.2168    5.1501 C   0  0  0  0  0
    2.1779    1.3835    0.1648 C   0  0  0  0  0
    3.3485    0.6449   -0.0066 C   0  0  0  0  0
    2.0354   -1.3412   -0.4164 C   0  0  0  0  0
   -4.3053    0.6398    4.4820 C   0  0  0  0  0
   -3.0712    1.8909    2.7817 C   0  0  0  0  0
   -3.5843    1.2772    5.4863 C   0  0  0  0  0
    0.8646   -0.6026   -0.2450 C   0  0  0  0  0
    0.9358    0.7598    0.0456 C   0  0  0  0  0
    3.2774   -0.7176   -0.2972 C   0  0  0  0  0
   -4.0394    0.9547    3.1482 C   0  0  0  0  0
   -3.5978    1.5010    0.4508 C   0  0  0  0  0
   -2.8581    2.1605    1.3533 C   0  0  0  0  0
   -4.6230    0.5108    0.8215 C   0  0  0  0  0
   -0.4071    2.6484    1.0289 C   0  0  0  0  0
   -3.8520    0.9580    6.9180 C   0  0  0  0  0
   -0.4522   -1.2965   -0.3776 C   0  0  0  0  0
   -1.8244    3.1617    0.9269 C   0  0  0  0  0
   -0.2402    1.5264    0.2234 N   0  0  0  0  0
    4.4693   -1.4691   -0.4714 N   0  0  0  0  0
    5.5761   -0.8885   -0.3597 O   0  0  0  0  0
   -5.2800   -0.0742   -0.0325 O   0  0  0  0  0
    0.4330    3.1910    1.7395 O   0  0  0  0  0
    4.3836   -2.6936   -0.7320 O   0  0  0  0  0
   -4.8020    0.2769    2.1760 O   0  0  0  0  0
  1  7  1  0  0  0
  2  8  1  0  0  0
  3 10  1  0  0  0
  4 11  1  0  0  0
  5  9  1  0  0  0
  6 12  1  0  0  0
  7 14  1  0  0  0
 10 20  1  0  0  0
 11 21  1  0  0  0
 12 26  1  0  0  0
 13 15  1  0  0  0
 15 26  1  0  0  0
 16 20  1  0  0  0
 17  8  1  0  0  0
 18  9  1  0  0  0
 19 14  1  0  0  0
 19 16  1  0  0  0
 21 22  1  0  0  0
  1  2  2  0  0  0
  3  4  2  0  0  0
  5 11  2  0  0  0
  6  8  2  0  0  0
  7 12  2  0  0  0
  9 10  2  0  0  0
 13 14  2  0  0  0
 15 23  2  0  0  0
 16 24  2  0  0  0
 21 25  2  0  0  0
M  CHG  2  21   1  22  -1
M  END
> <rmsd>
0.529162228

$$$$
ZINC63446878


 26 28  0  0  0  0  0  0  0  0999 V2000
   -4.6644    0.8417    0.2919 C   0  0  0  0  0
   -7.9834    3.4740    0.8780 C   0  0  0  0  0
   -7.6168    4.7916    0.5086 C   0  0  0  0  0
    2.1855    1.3574    0.3618 C   0  0  0  0  0
    3.3460    0.6181    0.1329 C   0  0  0  0  0
    2.0069   -1.2672   -0.5669 C   0  0  0  0  0
   -6.8201    2.7604    1.0649 C   0  0  0  0  0
   -6.2405    4.8431    0.4809 C   0  0  0  0  0
   -3.9271    2.0028    0.6665 C   0  0  0  0  0
   -2.5301    2.1066    0.8683 C   0  0  0  0  0
    0.9357    0.7844    0.1264 C   0  0  0  0  0
    3.2566   -0.6941   -0.3314 C   0  0  0  0  0
    0.8464   -0.5278   -0.3380 C   0  0  0  0  0
   -2.2904    3.4160    1.2145 C   0  0  0  0  0
   -4.4415    3.2562    0.9041 C   0  0  0  0  0
   -1.4971    1.0636    0.7465 C   0  0  0  0  0
   -1.0725    4.1680    1.5540 C   0  0  0  0  0
   -5.2646   -0.1035   -0.0130 N   0  0  0  0  0
   -5.7670    3.6027    0.8204 N   0  0  0  0  0
   -0.2232    1.5258    0.3579 N   0  0  0  0  0
    4.4380   -1.4462   -0.5653 N   0  0  0  0  0
    5.5523   -0.9118   -0.3478 O   0  0  0  0  0
   -1.7664   -0.1195    0.9426 O   0  0  0  0  0
    4.3357   -2.6252   -0.9827 O   0  0  0  0  0
   -3.4504    4.1234    1.2388 O   0  0  0  0  0
   -0.3495   -1.0889   -0.5668 F   0  0  0  0  0
  2  3  1  0  0  0
  4 11  1  0  0  0
  5 12  1  0  0  0
  6 13  1  0  0  0
  7 19  1  0  0  0
  8 19  1  0  0  0
  9  1  1  0  0  0
  9 10  1  0  0  0
 10 16  1  0  0  0
 11 20  1  0  0  0
 12 21  1  0  0  0
 13 26  1  0  0  0
 14 25  1  0  0  0
 15 19  1  0  0  0
 15 25  1  0  0  0
 16 20  1  0  0  0
 17 14  1  0  0  0
 21 22  1  0  0  0
  2  7  2  0  0  0
  3  8  2  0  0  0
  4  5  2  0  0  0
  6 12  2  0  0  0
  9 15  2  0  0  0
 10 14  2  0  0  0
 11 13  2  0  0  0
 16 23  2  0  0  0
 21 24  2  0  0  0
  1 18  3  0  0  0
M  CHG  2  21   1  22  -1
M  END
> <rmsd>
0.519667685

$$$$
ZINC05570687


 25 26  0  0  0  0  0  0  0  0999 V2000
   -5.5706    4.8974    0.4720 C   0  0  0  0  0
   -6.7433    4.1674    0.6646 C   0  0  0  0  0
   -4.3410    4.2408    0.4183 C   0  0  0  0  0
    2.1469    1.2662   -0.3205 C   0  0  0  0  0
   -6.6866    2.7806    0.8037 C   0  0  0  0  0
    3.3625    0.5836   -0.3662 C   0  0  0  0  0
    2.2151   -1.4911    0.0986 C   0  0  0  0  0
   -4.2843    2.8541    0.5573 C   0  0  0  0  0
    0.9996   -0.8086    0.1444 C   0  0  0  0  0
    0.9654    0.5700   -0.0651 C   0  0  0  0  0
    3.3967   -0.7950   -0.1567 C   0  0  0  0  0
   -5.4571    2.1239    0.7500 C   0  0  0  0  0
   -2.9809    2.2034    0.4956 C   0  0  0  0  0
   -0.6744    2.4683   -0.6146 C   0  0  0  0  0
   -0.2506   -1.5792    0.4206 C   0  0  0  0  0
   -0.2602    1.2821   -0.0223 N   0  0  0  0  0
   -2.0010    2.8345   -0.3088 N   0  0  0  0  0
    4.6344   -1.4894   -0.2032 N   0  0  0  0  0
   -5.4269    0.7089    0.8946 N   0  0  0  0  0
    5.6853   -0.8439   -0.4343 O   0  0  0  0  0
   -5.5216   -0.0065   -0.1304 O   0  0  0  0  0
   -2.7904    1.1378    1.1016 O   0  0  0  0  0
    4.6435   -2.7294   -0.0116 O   0  0  0  0  0
   -5.3060    0.2201    2.0425 O   0  0  0  0  0
    0.1961    3.5231   -1.5872 S   0  0  0  0  0
  1  2  1  0  0  0
  3  8  1  0  0  0
  4 10  1  0  0  0
  5 12  1  0  0  0
  6 11  1  0  0  0
  7  9  1  0  0  0
  8 13  1  0  0  0
 10 16  1  0  0  0
 11 18  1  0  0  0
 12 19  1  0  0  0
 13 17  1  0  0  0
 14 16  1  0  0  0
 14 17  1  0  0  0
 15  9  1  0  0  0
 18 20  1  0  0  0
 19 21  1  0  0  0
  1  3  2  0  0  0
  2  5  2  0  0  0
  4  6  2  0  0  0
  7 11  2  0  0  0
  8 12  2  0  0  0
  9 10  2  0  0  0
 13 22  2  0  0  0
 14 25  2  0  0  0
 18 23  2  0  0  0
 19 24  2  0  0  0
M  CHG  4  18   1  19   1  20  -1  21  -1
M  END
> <rmsd>
0.553815663

$$$$
ZINC13118645


 26 29  0  0  0  0  0  0  0  0999 V2000
   -8.6530    5.9197    1.9351 C   0  0  0  0  0
   -9.4658    4.8447    1.5877 C   0  0  0  0  0
   -7.2648    5.7905    1.8857 C   0  0  0  0  0
   -8.8933    3.6364    1.1895 C   0  0  0  0  0
   -5.2759    4.4337    1.4318 C   0  0  0  0  0
   -4.7035    3.2253    1.0337 C   0  0  0  0  0
    2.0433    0.8915    0.2362 C   0  0  0  0  0
    3.3014    0.3088    0.0382 C   0  0  0  0  0
   -6.9045    2.2794    0.7357 C   0  0  0  0  0
    2.2928   -1.7995   -0.6497 C   0  0  0  0  0
   -6.6714    4.5815    1.4873 C   0  0  0  0  0
   -7.4978    3.4883    1.1340 C   0  0  0  0  0
   -5.5162    2.1502    0.6864 C   0  0  0  0  0
    0.8984    0.1159   -0.0130 C   0  0  0  0  0
    1.0504   -1.1984   -0.4458 C   0  0  0  0  0
    3.4217   -1.0130   -0.3970 C   0  0  0  0  0
   -1.0827   -0.6439   -0.2525 C   0  0  0  0  0
   -4.9174    0.8916    0.2716 C   0  0  0  0  0
   -3.3871    0.7626    0.2214 C   0  0  0  0  0
   -0.4333    0.4425    0.1013 N   0  0  0  0  0
   -0.2328   -1.6599   -0.5908 N   0  0  0  0  0
    4.7149   -1.5715   -0.5862 N   0  0  0  0  0
    5.7223   -0.8606   -0.3568 O   0  0  0  0  0
   -5.6412   -0.0780   -0.0355 O   0  0  0  0  0
    4.8115   -2.7593   -0.9768 O   0  0  0  0  0
   -2.8331   -0.8754   -0.3198 S   0  0  0  0  0
  1  2  1  0  0  0
  3 11  1  0  0  0
  4 12  1  0  0  0
  5 11  1  0  0  0
  6 13  1  0  0  0
  7 14  1  0  0  0
  8 16  1  0  0  0
  9 12  1  0  0  0
 10 15  1  0  0  0
 13 18  1  0  0  0
 14 20  1  0  0  0
 15 21  1  0  0  0
 16 22  1  0  0  0
 17 21  1  0  0  0
 17 26  1  0  0  0
 19 18  1  0  0  0
 19 26  1  0  0  0
 22 23  1  0  0  0
  1  3  2  0  0  0
  2  4  2  0  0  0
  5  6  2  0  0  0
  7  8  2  0  0  0
  9 13  2  0  0  0
 10 16  2  0  0  0
 11 12  2  0  0  0
 14 15  2  0  0  0
 17 20  2  0  0  0
 18 24  2  0  0  0
 22 25  2  0  0  0
M  CHG  2  22   1  23  -1
M  END
> <rmsd>
0.520772696

$$$$
ZINC13118645


 26 29  0  0  0  0  0  0  0  0999 V2000
   -6.4226    6.8804    2.2390 C   0  0  0  0  0
   -5.0378    6.7525    2.1901 C   0  0  0  0  0
   -7.2365    5.8022    1.8905 C   0  0  0  0  0
   -4.4613    5.5459    1.7924 C   0  0  0  0  0
   -7.4773    3.4844    1.1337 C   0  0  0  0  0
   -6.9009    2.2778    0.7359 C   0  0  0  0  0
    2.0435    0.8912    0.2368 C   0  0  0  0  0
    3.3016    0.3085    0.0388 C   0  0  0  0  0
   -4.7021    3.2281    1.0354 C   0  0  0  0  0
    2.2930   -1.7998   -0.6491 C   0  0  0  0  0
   -6.6735    4.5802    1.4879 C   0  0  0  0  0
   -5.2650    4.4501    1.4381 C   0  0  0  0  0
   -5.5160    2.1499    0.6869 C   0  0  0  0  0
    0.8986    0.1156   -0.0124 C   0  0  0  0  0
    1.0506   -1.1987   -0.4452 C   0  0  0  0  0
    3.4219   -1.0132   -0.3964 C   0  0  0  0  0
   -1.0825   -0.6442   -0.2519 C   0  0  0  0  0
   -4.9172    0.8913    0.2722 C   0  0  0  0  0
   -3.3869    0.7623    0.2220 C   0  0  0  0  0
   -0.4332    0.4422    0.1019 N   0  0  0  0  0
   -0.2326   -1.6602   -0.5902 N   0  0  0  0  0
    4.7151   -1.5718   -0.5856 N   0  0  0  0  0
    5.7225   -0.8609   -0.3563 O   0  0  0  0  0
   -5.6410   -0.0783   -0.0349 O   0  0  0  0  0
    4.8117   -2.7596   -0.9762 O   0  0  0  0  0
   -2.8330   -0.8757   -0.3192 S   0  0  0  0  0
  1  2  1  0  0  0
  3 11  1  0  0  0
  4 12  1  0  0  0
  5 11  1  0  0  0
  6 13  1  0  0  0
  7 14  1  0  0  0
  8 16  1  0  0  0
  9 12  1  0  0  0
 10 15  1  0  0  0
 13 18  1  0  0  0
 14 20  1  0  0  0
 15 21  1  0  0  0
 16 22  1  0  0  0
 17 21  1  0  0  0
 17 26  1  0  0  0
 19 18  1  0  0  0
 19 26  1  0  0  0
 22 23  1  0  0  0
  1  3  2  0  0  0
  2  4  2  0  0  0
  5  6  2  0  0  0
  7  8  2  0  0  0
  9 13  2  0  0  0
 10 16  2  0  0  0
 11 12  2  0  0  0
 14 15  2  0  0  0
 17 20  2  0  0  0
 18 24  2  0  0  0
 22 25  2  0  0  0
M  CHG  2  22   1  23  -1
M  END
> <rmsd>
0.520772696

$$$$
ZINC67402088


 25 26  0  0  0  0  0  0  0  0999 V2000
    2.1999    1.3424    0.2239 C   0  0  0  0  0
    3.3777    0.6163    0.0468 C   0  0  0  0  0
    2.0855   -1.3291   -0.5715 C   0  0  0  0  0
   -5.1144    1.2573    0.2898 C   0  0  0  0  0
    0.9077   -0.6032   -0.3945 C   0  0  0  0  0
    0.9649    0.7326    0.0033 C   0  0  0  0  0
    3.3205   -0.7194   -0.3509 C   0  0  0  0  0
   -4.3190    1.4968    1.3908 C   0  0  0  0  0
   -4.7654   -0.8194    0.9025 C   0  0  0  0  0
   -0.3248    2.8173    0.5794 C   0  0  0  0  0
   -0.4014   -1.2817   -0.6371 C   0  0  0  0  0
   -6.1339   -2.8410    1.4736 C   0  0  0  0  0
   -1.9246    4.7499    0.4412 C   0  0  0  0  0
   -1.8955    3.8862    3.0673 C   0  0  0  0  0
   -3.8492    2.7975    1.9726 C   0  0  0  0  0
   -4.8116   -2.2979    0.9256 C   0  0  0  0  0
   -1.7814    3.2519    0.6619 C   0  0  0  0  0
   -5.3711   -0.0702    0.0079 N   0  0  0  0  0
   -0.2187    1.4859    0.1887 N   0  0  0  0  0
    4.5197   -1.4581   -0.5309 N   0  0  0  0  0
   -2.3484    2.9235    2.0009 N   0  0  0  0  0
    5.6200   -0.8905   -0.3269 O   0  0  0  0  0
    0.5919    3.5904    0.8413 O   0  0  0  0  0
    4.4465   -2.6587   -0.8886 O   0  0  0  0  0
   -3.8701    0.0066    2.1112 S   0  0  0  0  0
  1  6  1  0  0  0
  2  7  1  0  0  0
  3  5  1  0  0  0
  4 18  1  0  0  0
  6 19  1  0  0  0
  7 20  1  0  0  0
  8 25  1  0  0  0
  9 25  1  0  0  0
 10 19  1  0  0  0
 11  5  1  0  0  0
 12 16  1  0  0  0
 13 17  1  0  0  0
 14 21  1  0  0  0
 15  8  1  0  0  0
 15 21  1  0  0  0
 16  9  1  0  0  0
 17 10  1  0  0  0
 17 21  1  0  0  0
 20 22  1  0  0  0
  1  2  2  0  0  0
  3  7  2  0  0  0
  4  8  2  0  0  0
  5  6  2  0  0  0
  9 18  2  0  0  0
 10 23  2  0  0  0
 20 24  2  0  0  0
M  CHG  3  20   1  21   1  22  -1
M  END
> <rmsd>
0.557215512

$$$$
ZINC59417526


 26 29  0  0  0  0  0  0  0  0999 V2000
   -7.7561    4.7421   -0.7438 C   0  0  0  0  0
   -7.2499    3.6654   -1.4657 C   0  0  0  0  0
   -5.4641    3.1483    3.2409 C   0  0  0  0  0
   -7.4413    4.8869    0.6076 C   0  0  0  0  0
   -6.4268    2.7293   -0.8391 C   0  0  0  0  0
   -6.2871    4.0844    2.6141 C   0  0  0  0  0
   -4.9579    2.0715    2.5189 C   0  0  0  0  0
    1.9479    0.8825    0.1590 C   0  0  0  0  0
    3.2143    0.3150   -0.0090 C   0  0  0  0  0
    2.2223   -1.8149   -0.6076 C   0  0  0  0  0
   -6.6144    3.9543    1.2546 C   0  0  0  0  0
   -6.0996    2.8593    0.5204 C   0  0  0  0  0
   -5.2727    1.9266    1.1675 C   0  0  0  0  0
    0.7944    0.0978   -0.0572 C   0  0  0  0  0
    3.3474   -1.0164   -0.3873 C   0  0  0  0  0
    0.9534   -1.2383   -0.4371 C   0  0  0  0  0
   -1.3320   -0.4706   -0.2067 C   0  0  0  0  0
   -4.7038    0.7717    0.4780 C   0  0  0  0  0
   -0.5201    0.5227    0.0703 N   0  0  0  0  0
   -2.7286   -0.3792   -0.1714 N   0  0  0  0  0
   -3.3143    0.6888    0.4475 N   0  0  0  0  0
    4.6436   -1.5743   -0.5516 N   0  0  0  0  0
    5.6470   -0.8488   -0.3504 O   0  0  0  0  0
   -5.4460   -0.0822   -0.0326 O   0  0  0  0  0
    4.7485   -2.7769   -0.8928 O   0  0  0  0  0
   -0.6014   -1.9575   -0.6328 S   0  0  0  0  0
  1  2  1  0  0  0
  3  6  1  0  0  0
  4 11  1  0  0  0
  5 12  1  0  0  0
  7 13  1  0  0  0
  8 14  1  0  0  0
  9 15  1  0  0  0
 10 16  1  0  0  0
 11 12  1  0  0  0
 13 18  1  0  0  0
 14 19  1  0  0  0
 15 22  1  0  0  0
 16 26  1  0  0  0
 17 20  1  0  0  0
 17 26  1  0  0  0
 18 21  1  0  0  0
 20 21  1  0  0  0
 22 23  1  0  0  0
  1  4  2  0  0  0
  2  5  2  0  0  0
  3  7  2  0  0  0
  6 11  2  0  0  0
  8  9  2  0  0  0
 10 15  2  0  0  0
 12 13  2  0  0  0
 14 16  2  0  0  0
 17 19  2  0  0  0
 18 24  2  0  0  0
 22 25  2  0  0  0
M  CHG  2  22   1  23  -1
M  END
> <rmsd>
0.542578399

$$$$
ZINC59417526


 26 29  0  0  0  0  0  0  0  0999 V2000
   -7.8301    1.5755    4.4975 C   0  0  0  0  0
   -7.3256    0.4292    3.8909 C   0  0  0  0  0
   -5.4369    4.3317    1.2808 C   0  0  0  0  0
   -7.4893    2.8349    4.0036 C   0  0  0  0  0
   -6.4782    0.5379    2.7878 C   0  0  0  0  0
   -6.2843    4.2229    2.3836 C   0  0  0  0  0
   -4.9323    3.1853    0.6740 C   0  0  0  0  0
    1.9476    0.8823    0.1593 C   0  0  0  0  0
    3.2141    0.3149   -0.0088 C   0  0  0  0  0
    2.2223   -1.8150   -0.6074 C   0  0  0  0  0
   -6.6378    2.9633    2.8943 C   0  0  0  0  0
   -6.1246    1.7975    2.2772 C   0  0  0  0  0
   -5.2730    1.9257    1.1679 C   0  0  0  0  0
    0.7942    0.0975   -0.0569 C   0  0  0  0  0
    3.3473   -1.0164   -0.3872 C   0  0  0  0  0
    0.9533   -1.2386   -0.4369 C   0  0  0  0  0
   -1.3321   -0.4711   -0.2065 C   0  0  0  0  0
   -4.7041    0.7709    0.4783 C   0  0  0  0  0
   -0.5203    0.5223    0.0706 N   0  0  0  0  0
   -2.7288   -0.3798   -0.1711 N   0  0  0  0  0
   -3.3146    0.6882    0.4478 N   0  0  0  0  0
    4.6435   -1.5742   -0.5515 N   0  0  0  0  0
    5.6469   -0.8486   -0.3503 O   0  0  0  0  0
   -5.4462   -0.0830   -0.0323 O   0  0  0  0  0
    4.7485   -2.7768   -0.8928 O   0  0  0  0  0
   -0.6014   -1.9579   -0.6327 S   0  0  0  0  0
  1  2  1  0  0  0
  3  6  1  0  0  0
  4 11  1  0  0  0
  5 12  1  0  0  0
  7 13  1  0  0  0
  8 14  1  0  0  0
  9 15  1  0  0  0
 10 16  1  0  0  0
 11 12  1  0  0  0
 13 18  1  0  0  0
 14 19  1  0  0  0
 15 22  1  0  0  0
 16 26  1  0  0  0
 17 20  1  0  0  0
 17 26  1  0  0  0
 18 21  1  0  0  0
 20 21  1  0  0  0
 22 23  1  0  0  0
  1  4  2  0  0  0
  2  5  2  0  0  0
  3  7  2  0  0  0
  6 11  2  0  0  0
  8  9  2  0  0  0
 10 15  2  0  0  0
 12 13  2  0  0  0
 14 16  2  0  0  0
 17 19  2  0  0  0
 18 24  2  0  0  0
 22 25  2  0  0  0
M  CHG  2  22   1  23  -1
M  END
> <rmsd>
0.542490005

$$$$
ZINC59417526


 26 29  0  0  0  0  0  0  0  0999 V2000
   -4.5741    2.7341    5.2433 C   0  0  0  0  0
   -3.9979    1.6132    4.6531 C   0  0  0  0  0
   -6.6545    3.8982    1.0020 C   0  0  0  0  0
   -5.3797    3.5856    4.4868 C   0  0  0  0  0
   -4.2250    1.3395    3.3040 C   0  0  0  0  0
   -6.4273    4.1718    2.3511 C   0  0  0  0  0
   -6.0782    2.7773    0.4118 C   0  0  0  0  0
    1.9480    0.8823    0.1596 C   0  0  0  0  0
    3.2144    0.3149   -0.0084 C   0  0  0  0  0
    2.2227   -1.8151   -0.6071 C   0  0  0  0  0
   -5.6192    3.3256    3.1277 C   0  0  0  0  0
   -5.0332    2.1858    2.5274 C   0  0  0  0  0
   -5.2726    1.9257    1.1682 C   0  0  0  0  0
    0.7946    0.0975   -0.0566 C   0  0  0  0  0
    3.3477   -1.0164   -0.3869 C   0  0  0  0  0
    0.9537   -1.2386   -0.4366 C   0  0  0  0  0
   -1.3317   -0.4711   -0.2062 C   0  0  0  0  0
   -4.7037    0.7709    0.4786 C   0  0  0  0  0
   -0.5200    0.5223    0.0709 N   0  0  0  0  0
   -2.7284   -0.3798   -0.1708 N   0  0  0  0  0
   -3.3142    0.6881    0.4481 N   0  0  0  0  0
    4.6439   -1.5743   -0.5512 N   0  0  0  0  0
    5.6473   -0.8487   -0.3500 O   0  0  0  0  0
   -5.4458   -0.0830   -0.0320 O   0  0  0  0  0
    4.7489   -2.7768   -0.8925 O   0  0  0  0  0
   -0.6010   -1.9579   -0.6324 S   0  0  0  0  0
  1  2  1  0  0  0
  3  6  1  0  0  0
  4 11  1  0  0  0
  5 12  1  0  0  0
  7 13  1  0  0  0
  8 14  1  0  0  0
  9 15  1  0  0  0
 10 16  1  0  0  0
 11 12  1  0  0  0
 13 18  1  0  0  0
 14 19  1  0  0  0
 15 22  1  0  0  0
 16 26  1  0  0  0
 17 20  1  0  0  0
 17 26  1  0  0  0
 18 21  1  0  0  0
 20 21  1  0  0  0
 22 23  1  0  0  0
  1  4  2  0  0  0
  2  5  2  0  0  0
  3  7  2  0  0  0
  6 11  2  0  0  0
  8  9  2  0  0  0
 10 15  2  0  0  0
 12 13  2  0  0  0
 14 16  2  0  0  0
 17 19  2  0  0  0
 18 24  2  0  0  0
 22 25  2  0  0  0
M  CHG  2  22   1  23  -1
M  END
> <rmsd>
0.542490005

$$$$
ZINC78260499


 25 26  0  0  0  0  0  0  0  0999 V2000
    2.2269    1.4081   -0.0652 C   0  0  0  0  0
    3.4021    0.6669   -0.1874 C   0  0  0  0  0
   -5.3464    0.4165    2.2331 C   0  0  0  0  0
   -4.7500    1.0403    3.3289 C   0  0  0  0  0
   -3.6456    1.3352    0.7841 C   0  0  0  0  0
    2.1233   -1.3797   -0.0720 C   0  0  0  0  0
    0.9998    0.7555    0.0537 C   0  0  0  0  0
   -3.0491    1.9590    1.8798 C   0  0  0  0  0
    3.3504   -0.7270   -0.1909 C   0  0  0  0  0
   -4.7942    0.5639    0.9607 C   0  0  0  0  0
   -3.6013    1.8116    3.1522 C   0  0  0  0  0
    0.9481   -0.6384    0.0502 C   0  0  0  0  0
   -0.2019    1.5716    0.1791 C   0  0  0  0  0
    0.0797    1.5516    2.6679 C   0  0  0  0  0
   -4.7601    0.1469   -1.3804 C   0  0  0  0  0
   -3.6626    2.2109    5.4959 C   0  0  0  0  0
   -1.8131    2.7856    1.6711 C   0  0  0  0  0
   -0.6290    1.9553    1.4616 N   0  0  0  0  0
    4.5470   -1.4811   -0.3165 N   0  0  0  0  0
    5.6399   -0.8740   -0.4232 O   0  0  0  0  0
   -0.7716    1.8908   -0.8708 O   0  0  0  0  0
    4.4788   -2.7341   -0.3173 O   0  0  0  0  0
   -5.3765   -0.0454   -0.1080 O   0  0  0  0  0
   -3.0321    2.4151    4.2331 O   0  0  0  0  0
   -0.5508   -1.4845    0.1924 Cl  0  0  0  0  0
  1  7  1  0  0  0
  2  9  1  0  0  0
  3 10  1  0  0  0
  4 11  1  0  0  0
  5  8  1  0  0  0
  6 12  1  0  0  0
  7 13  1  0  0  0
  9 19  1  0  0  0
 10 23  1  0  0  0
 11 24  1  0  0  0
 12 25  1  0  0  0
 13 18  1  0  0  0
 14 18  1  0  0  0
 15 23  1  0  0  0
 16 24  1  0  0  0
 17  8  1  0  0  0
 17 18  1  0  0  0
 19 20  1  0  0  0
  1  2  2  0  0  0
  3  4  2  0  0  0
  5 10  2  0  0  0
  6  9  2  0  0  0
  7 12  2  0  0  0
  8 11  2  0  0  0
 13 21  2  0  0  0
 19 22  2  0  0  0
M  CHG  2  19   1  20  -1
M  END
> <rmsd>
0.542716444

$$$$
ZINC00651707


 27 30  0  0  0  0  0  0  0  0999 V2000
    7.8230    4.0943   -0.5969 C   0  0  0  0  0
    6.7572    4.7691   -1.1861 C   0  0  0  0  0
   -1.1172    1.8076    1.2539 C   0  0  0  0  0
    7.7283    2.7269   -0.3462 C   0  0  0  0  0
    5.5905    4.0785   -1.5200 C   0  0  0  0  0
   -2.5072    1.8202    1.1391 C   0  0  0  0  0
    1.9068    0.7870    1.9439 C   0  0  0  0  0
    3.2125    0.7752    1.3980 C   0  0  0  0  0
   -2.4327   -0.3100    0.0016 C   0  0  0  0  0
   -0.3849    0.7362    0.7425 C   0  0  0  0  0
    6.5572    2.0364   -0.6824 C   0  0  0  0  0
   -1.0425   -0.3226    0.1165 C   0  0  0  0  0
    5.4670    2.7051   -1.2654 C   0  0  0  0  0
   -3.1650    0.7615    0.5130 C   0  0  0  0  0
    1.0447    0.7473    0.8729 C   0  0  0  0  0
    3.0554    0.7289    0.0323 C   0  0  0  0  0
    6.4813    0.5714   -0.4517 C   0  0  0  0  0
    4.0357    0.6951   -1.1250 C   0  0  0  0  0
   -0.2913   -1.4872   -0.4451 C   0  0  0  0  0
    4.2949    2.0434   -1.5998 N   0  0  0  0  0
    5.2847    0.0112   -0.8076 N   0  0  0  0  0
   -4.5801    0.7744    0.3965 N   0  0  0  0  0
   -5.2198    1.7477    0.8635 O   0  0  0  0  0
    7.4450   -0.0411   -0.0047 O   0  0  0  0  0
   -5.1524   -0.1875   -0.1707 O   0  0  0  0  0
    1.7369    0.7117   -0.2960 O   0  0  0  0  0
    5.1440   -1.3647   -0.5778 O   0  0  0  0  0
  1  2  1  0  0  0
  3 10  1  0  0  0
  4 11  1  0  0  0
  5 13  1  0  0  0
  6 14  1  0  0  0
  7  8  1  0  0  0
  9 12  1  0  0  0
 10 15  1  0  0  0
 11 17  1  0  0  0
 13 20  1  0  0  0
 14 22  1  0  0  0
 15 26  1  0  0  0
 16 26  1  0  0  0
 17 21  1  0  0  0
 18 16  1  0  0  0
 18 20  1  0  0  0
 18 21  1  0  0  0
 19 12  1  0  0  0
 21 27  1  0  0  0
 22 23  1  0  0  0
  1  4  2  0  0  0
  2  5  2  0  0  0
  3  6  2  0  0  0
  7 15  2  0  0  0
  8 16  2  0  0  0
  9 14  2  0  0  0
 10 12  2  0  0  0
 11 13  2  0  0  0
 17 24  2  0  0  0
 22 25  2  0  0  0
M  CHG  2  22   1  23  -1
M  END
> <rmsd>
0.781048954

$$$$
ZINC09705415


 27 29  0  0  0  0  0  0  0  0999 V2000
    2.1786    1.3835    0.1652 C   0  0  0  0  0
    3.3492    0.6447   -0.0062 C   0  0  0  0  0
   -2.3557    2.5219    3.8098 C   0  0  0  0  0
    2.0358   -1.3414   -0.4155 C   0  0  0  0  0
   -4.3047    0.6392    4.4826 C   0  0  0  0  0
   -3.0705    1.8909    2.7829 C   0  0  0  0  0
   -2.6113    2.2165    5.1514 C   0  0  0  0  0
    0.8652   -0.6026   -0.2441 C   0  0  0  0  0
   -3.5843    1.2767    5.4871 C   0  0  0  0  0
    0.9366    0.7598    0.0464 C   0  0  0  0  0
    3.2779   -0.7177   -0.2966 C   0  0  0  0  0
   -4.0384    0.9543    3.1489 C   0  0  0  0  0
   -3.5963    1.5011    0.4518 C   0  0  0  0  0
   -2.8570    2.1608    1.3546 C   0  0  0  0  0
   -4.6212    0.5106    0.8219 C   0  0  0  0  0
   -0.4061    2.6487    1.0296 C   0  0  0  0  0
   -1.8232    2.9135    6.2129 C   0  0  0  0  0
   -0.4517   -1.2964   -0.3763 C   0  0  0  0  0
   -3.8695    0.9392    6.9134 C   0  0  0  0  0
   -1.8233    3.1619    0.9278 C   0  0  0  0  0
   -0.2395    1.5265    0.2243 N   0  0  0  0  0
    4.4699   -1.4695   -0.4709 N   0  0  0  0  0
    5.5766   -0.8889   -0.3595 O   0  0  0  0  0
   -5.2795   -0.0729   -0.0320 O   0  0  0  0  0
    0.4341    3.1912    1.7400 O   0  0  0  0  0
    4.3839   -2.6940   -0.7313 O   0  0  0  0  0
   -4.8006    0.2765    2.1765 O   0  0  0  0  0
  1 10  1  0  0  0
  2 11  1  0  0  0
  3  7  1  0  0  0
  4  8  1  0  0  0
  5  9  1  0  0  0
  6 12  1  0  0  0
  6 14  1  0  0  0
 10 21  1  0  0  0
 11 22  1  0  0  0
 12 27  1  0  0  0
 13 15  1  0  0  0
 15 27  1  0  0  0
 16 21  1  0  0  0
 17  7  1  0  0  0
 18  8  1  0  0  0
 19  9  1  0  0  0
 20 14  1  0  0  0
 20 16  1  0  0  0
 22 23  1  0  0  0
  1  2  2  0  0  0
  3  6  2  0  0  0
  4 11  2  0  0  0
  5 12  2  0  0  0
  7  9  2  0  0  0
  8 10  2  0  0  0
 13 14  2  0  0  0
 15 24  2  0  0  0
 16 25  2  0  0  0
 22 26  2  0  0  0
M  CHG  2  22   1  23  -1
M  END
> <rmsd>
0.528990984

$$$$
ZINC09705203


 27 29  0  0  0  0  0  0  0  0999 V2000
   -2.3550    2.5224    3.8075 C   0  0  0  0  0
    2.1784    1.3830    0.1643 C   0  0  0  0  0
    3.3492    0.6445   -0.0067 C   0  0  0  0  0
   -2.6101    2.2179    5.1495 C   0  0  0  0  0
    2.0364   -1.3422   -0.4152 C   0  0  0  0  0
   -4.3050    0.6413    4.4821 C   0  0  0  0  0
   -3.0707    1.8912    2.7813 C   0  0  0  0  0
    0.8655   -0.6036   -0.2441 C   0  0  0  0  0
    0.9365    0.7590    0.0456 C   0  0  0  0  0
    3.2782   -0.7182   -0.2965 C   0  0  0  0  0
   -4.0391    0.9555    3.1481 C   0  0  0  0  0
   -3.5837    1.2788    5.4860 C   0  0  0  0  0
   -3.5977    1.5006    0.4506 C   0  0  0  0  0
   -2.8576    2.1603    1.3527 C   0  0  0  0  0
   -4.6231    0.5109    0.8217 C   0  0  0  0  0
   -0.4066    2.6480    1.0279 C   0  0  0  0  0
   -0.4512   -1.2978   -0.3762 C   0  0  0  0  0
   -4.8375    0.0173    7.0648 C   0  0  0  0  0
   -1.8241    3.1611    0.9258 C   0  0  0  0  0
   -0.2397    1.5255    0.2231 N   0  0  0  0  0
    4.4704   -1.4697   -0.4704 N   0  0  0  0  0
    5.5770   -0.8888   -0.3591 O   0  0  0  0  0
   -5.2809   -0.0738   -0.0319 O   0  0  0  0  0
    0.4334    3.1912    1.7380 O   0  0  0  0  0
    4.3848   -2.6943   -0.7302 O   0  0  0  0  0
   -4.8021    0.2776    2.1764 O   0  0  0  0  0
   -3.8276    0.9880    6.7925 O   0  0  0  0  0
  1  4  1  0  0  0
  2  9  1  0  0  0
  3 10  1  0  0  0
  5  8  1  0  0  0
  6 12  1  0  0  0
  7 11  1  0  0  0
  7 14  1  0  0  0
  9 20  1  0  0  0
 10 21  1  0  0  0
 11 26  1  0  0  0
 12 27  1  0  0  0
 13 15  1  0  0  0
 15 26  1  0  0  0
 16 20  1  0  0  0
 17  8  1  0  0  0
 18 27  1  0  0  0
 19 14  1  0  0  0
 19 16  1  0  0  0
 21 22  1  0  0  0
  1  7  2  0  0  0
  2  3  2  0  0  0
  4 12  2  0  0  0
  5 10  2  0  0  0
  6 11  2  0  0  0
  8  9  2  0  0  0
 13 14  2  0  0  0
 15 23  2  0  0  0
 16 24  2  0  0  0
 21 25  2  0  0  0
M  CHG  2  21   1  22  -1
M  END
> <rmsd>
0.529050946

$$$$
ZINC47186797


 26 28  0  0  0  0  0  0  0  0999 V2000
   -4.8276   -2.7315    4.5692 C   0  0  0  0  0
   -5.4752   -2.9525    3.3538 C   0  0  0  0  0
   -4.5650   -1.4287    4.9928 C   0  0  0  0  0
    2.1546    1.3912   -0.0357 C   0  0  0  0  0
   -5.8602   -1.8708    2.5619 C   0  0  0  0  0
   -4.9498   -0.3470    4.2009 C   0  0  0  0  0
    3.3363    0.6588   -0.1502 C   0  0  0  0  0
    2.0584   -1.3899   -0.2345 C   0  0  0  0  0
   -4.2945    0.3924   -0.8880 C   0  0  0  0  0
   -4.1385    1.6933    0.8779 C   0  0  0  0  0
    0.9249    0.7330   -0.0206 C   0  0  0  0  0
   -5.5975   -0.5679    2.9853 C   0  0  0  0  0
   -3.5701    1.4745   -0.3531 C   0  0  0  0  0
    3.2882   -0.7317   -0.2496 C   0  0  0  0  0
    0.8767   -0.6576   -0.1200 C   0  0  0  0  0
   -0.2834    1.5391    0.1032 C   0  0  0  0  0
   -6.0126    0.5991    2.1309 C   0  0  0  0  0
   -2.4325    2.2238   -0.9846 C   0  0  0  0  0
   -5.2501   -0.0458   -0.0642 N   0  0  0  0  0
   -5.1300    0.7649    1.0010 N   0  0  0  0  0
   -1.2012    1.4678   -0.9492 N   0  0  0  0  0
    4.4912   -1.4768   -0.3686 N   0  0  0  0  0
    5.5865   -0.8648   -0.3822 O   0  0  0  0  0
   -0.4560    2.2632    1.0974 O   0  0  0  0  0
    4.4259   -2.7268   -0.4563 O   0  0  0  0  0
   -0.6251   -1.5102   -0.1035 Cl  0  0  0  0  0
  1  2  1  0  0  0
  3  6  1  0  0  0
  4 11  1  0  0  0
  5 12  1  0  0  0
  7 14  1  0  0  0
  8 15  1  0  0  0
  9 13  1  0  0  0
 10 20  1  0  0  0
 11 16  1  0  0  0
 14 22  1  0  0  0
 15 26  1  0  0  0
 16 21  1  0  0  0
 17 12  1  0  0  0
 17 20  1  0  0  0
 18 13  1  0  0  0
 18 21  1  0  0  0
 20 19  1  0  0  0
 22 23  1  0  0  0
  1  3  2  0  0  0
  2  5  2  0  0  0
  4  7  2  0  0  0
  6 12  2  0  0  0
  8 14  2  0  0  0
  9 19  2  0  0  0
 10 13  2  0  0  0
 11 15  2  0  0  0
 16 24  2  0  0  0
 22 25  2  0  0  0
M  CHG  2  22   1  23  -1
M  END
> <rmsd>
0.581501722

$$$$
ZINC04278852


 26 28  0  0  0  0  0  0  0  0999 V2000
   -9.3496    0.3041    0.4822 C   0  0  0  0  0
   -7.9555    0.2752    0.4487 C   0  0  0  0  0
    3.1136    0.4219   -0.1730 C   0  0  0  0  0
  -10.0576    0.9685   -0.5194 C   0  0  0  0  0
    1.8734    1.0516   -0.0520 C   0  0  0  0  0
    2.0498   -1.7466   -0.1216 C   0  0  0  0  0
   -0.5302   -1.7213    0.1054 C   0  0  0  0  0
    0.7773   -1.1382    0.0018 C   0  0  0  0  0
   -7.2693    0.9108   -0.5861 C   0  0  0  0  0
    3.2032   -0.9625   -0.2078 C   0  0  0  0  0
   -9.3715    1.6040   -1.5542 C   0  0  0  0  0
   -7.9773    1.5752   -1.5877 C   0  0  0  0  0
    0.7125    0.2582    0.0345 C   0  0  0  0  0
   -1.5281   -0.7819    0.2112 C   0  0  0  0  0
   -5.7965    0.8674   -0.6006 C   0  0  0  0  0
   -2.9356   -0.9836    0.3309 C   0  0  0  0  0
  -10.4492    1.4855   -3.6708 C   0  0  0  0  0
   -5.1359   -0.1259   -0.1006 N   0  0  0  0  0
   -3.7914    0.0018   -0.1997 N   0  0  0  0  0
    4.4727   -1.5875   -0.3317 N   0  0  0  0  0
    5.4986   -0.8695   -0.4082 O   0  0  0  0  0
   -3.4123   -1.9971    0.9048 O   0  0  0  0  0
    4.5329   -2.8403   -0.3610 O   0  0  0  0  0
   -7.3130    2.1990   -2.6027 O   0  0  0  0  0
  -10.0757    2.2493   -2.5258 O   0  0  0  0  0
   -0.9146    0.8081    0.1879 S   0  0  0  0  0
  1  2  1  0  0  0
  3 10  1  0  0  0
  4 11  1  0  0  0
  5 13  1  0  0  0
  6  8  1  0  0  0
  7  8  1  0  0  0
  9 12  1  0  0  0
  9 15  1  0  0  0
 10 20  1  0  0  0
 11 25  1  0  0  0
 12 24  1  0  0  0
 13 26  1  0  0  0
 14 16  1  0  0  0
 14 26  1  0  0  0
 16 19  1  0  0  0
 17 25  1  0  0  0
 19 18  1  0  0  0
 20 21  1  0  0  0
  1  4  2  0  0  0
  2  9  2  0  0  0
  3  5  2  0  0  0
  6 10  2  0  0  0
  7 14  2  0  0  0
  8 13  2  0  0  0
 11 12  2  0  0  0
 15 18  2  0  0  0
 16 22  2  0  0  0
 20 23  2  0  0  0
M  CHG  2  20   1  21  -1
M  END
> <rmsd>
0.557974756

$$$$
ZINC88560155


 27 29  0  0  0  0  0  0  0  0999 V2000
    2.2727    1.4010    0.3060 C   0  0  0  0  0
    3.4257    0.6468    0.0881 C   0  0  0  0  0
    2.0660   -1.2683   -0.4782 C   0  0  0  0  0
    0.9130   -0.5141   -0.2603 C   0  0  0  0  0
    1.0163    0.8205    0.1319 C   0  0  0  0  0
    3.3223   -0.6877   -0.3040 C   0  0  0  0  0
   -4.3833    1.9038    0.2075 C   0  0  0  0  0
   -4.9497    0.1557    1.2146 C   0  0  0  0  0
   -0.2018    2.9366    0.7486 C   0  0  0  0  0
   -4.5109    2.4666   -2.5962 C   0  0  0  0  0
   -4.4802    3.6307   -1.5963 C   0  0  0  0  0
   -5.3012    1.2808   -2.0388 C   0  0  0  0  0
   -3.8626    3.2196   -0.2483 C   0  0  0  0  0
   -0.4199   -1.1616   -0.4537 C   0  0  0  0  0
   -6.5658   -0.8382    2.8538 C   0  0  0  0  0
   -1.7132    4.8838    1.2351 C   0  0  0  0  0
   -5.1312   -0.8081    2.3062 C   0  0  0  0  0
   -1.6434    3.4060    0.8824 C   0  0  0  0  0
   -4.3385    1.3643    1.4069 N   0  0  0  0  0
   -5.3741   -0.0934   -0.0272 N   0  0  0  0  0
   -4.9936    1.0311   -0.6493 N   0  0  0  0  0
   -0.1415    1.6023    0.3579 N   0  0  0  0  0
    4.4963   -1.4552   -0.5256 N   0  0  0  0  0
   -2.3757    3.1949   -0.3910 N   0  0  0  0  0
    5.6164   -0.9134   -0.3630 O   0  0  0  0  0
    0.7421    3.6881    0.9750 O   0  0  0  0  0
    4.3817   -2.6540   -0.8778 O   0  0  0  0  0
  1  5  1  0  0  0
  2  6  1  0  0  0
  3  4  1  0  0  0
  5 22  1  0  0  0
  6 23  1  0  0  0
  7 21  1  0  0  0
  8 19  1  0  0  0
  9 22  1  0  0  0
 10 11  1  0  0  0
 10 12  1  0  0  0
 11 13  1  0  0  0
 12 21  1  0  0  0
 13  7  1  0  0  0
 13 24  1  0  0  0
 14  4  1  0  0  0
 15 17  1  0  0  0
 16 18  1  0  0  0
 17  8  1  0  0  0
 18  9  1  0  0  0
 18 24  1  0  0  0
 21 20  1  0  0  0
 23 25  1  0  0  0
  1  2  2  0  0  0
  3  6  2  0  0  0
  4  5  2  0  0  0
  7 19  2  0  0  0
  8 20  2  0  0  0
  9 26  2  0  0  0
 23 27  2  0  0  0
M  CHG  3  23   1  24   1  25  -1
M  END
> <rmsd>
0.49590975

$$$$
ZINC08704627


 25 27  0  0  0  0  0  0  0  0999 V2000
    2.0791    0.8462    0.4583 C   0  0  0  0  0
    3.3277    0.2796    0.1866 C   0  0  0  0  0
    2.2717   -1.6769   -0.7808 C   0  0  0  0  0
   -5.5500    2.0280    0.9328 C   0  0  0  0  0
    0.9023    0.1489    0.1091 C   0  0  0  0  0
    3.4205   -0.9657   -0.4250 C   0  0  0  0  0
    1.0208   -1.1016   -0.5049 C   0  0  0  0  0
   -4.8536    0.9418    0.4455 C   0  0  0  0  0
   -1.2402   -0.3181   -0.1321 C   0  0  0  0  0
   -6.8913    0.2183    0.0796 C   0  0  0  0  0
   -3.3845    0.8291    0.4199 C   0  0  0  0  0
   -2.6492   -0.2188   -0.0910 C   0  0  0  0  0
   -7.9812   -1.4801   -1.3830 C   0  0  0  0  0
   -6.7627   -1.5759   -2.2721 C   0  0  0  0  0
   -9.1846   -1.4127    1.6880 C   0  0  0  0  0
   -9.2363   -0.4567    0.5451 C   0  0  0  0  0
   -0.3986    0.5840    0.3157 N   0  0  0  0  0
   -5.6211   -0.0971   -0.0437 N   0  0  0  0  0
   -7.9786   -0.5311   -0.2840 N   0  0  0  0  0
    4.6993   -1.5241   -0.6931 N   0  0  0  0  0
    5.7241   -0.8770   -0.3700 O   0  0  0  0  0
   -8.9467   -2.2006   -1.6486 O   0  0  0  0  0
    4.7673   -2.6485   -1.2449 O   0  0  0  0  0
   -7.2347    1.7489    0.7752 S   0  0  0  0  0
   -0.5550   -1.7260   -0.8208 S   0  0  0  0  0
  1  5  1  0  0  0
  2  6  1  0  0  0
  3  7  1  0  0  0
  4 24  1  0  0  0
  5 17  1  0  0  0
  6 20  1  0  0  0
  7 25  1  0  0  0
  8 11  1  0  0  0
  8 18  1  0  0  0
  9 12  1  0  0  0
  9 25  1  0  0  0
 10 19  1  0  0  0
 10 24  1  0  0  0
 13 19  1  0  0  0
 14 13  1  0  0  0
 15 16  1  0  0  0
 16 19  1  0  0  0
 20 21  1  0  0  0
  1  2  2  0  0  0
  3  6  2  0  0  0
  4  8  2  0  0  0
  5  7  2  0  0  0
  9 17  2  0  0  0
 10 18  2  0  0  0
 11 12  2  0  0  0
 13 22  2  0  0  0
 20 23  2  0  0  0
M  CHG  2  20   1  21  -1
M  END
> <rmsd>
0.509030342

$$$$
ZINC08704627


 25 27  0  0  0  0  0  0  0  0999 V2000
    2.0792    0.8462    0.4582 C   0  0  0  0  0
    3.3278    0.2795    0.1865 C   0  0  0  0  0
    2.2719   -1.6770   -0.7809 C   0  0  0  0  0
   -5.5498    2.0279    0.9327 C   0  0  0  0  0
    0.9025    0.1488    0.1090 C   0  0  0  0  0
    3.4206   -0.9658   -0.4251 C   0  0  0  0  0
    1.0210   -1.1017   -0.5050 C   0  0  0  0  0
   -4.8534    0.9417    0.4454 C   0  0  0  0  0
   -1.2401   -0.3182   -0.1322 C   0  0  0  0  0
   -6.8912    0.2182    0.0795 C   0  0  0  0  0
   -3.3844    0.8290    0.4198 C   0  0  0  0  0
   -2.6491   -0.2189   -0.0911 C   0  0  0  0  0
   -7.8926   -1.8484   -0.8889 C   0  0  0  0  0
   -6.5344   -2.3963   -1.2633 C   0  0  0  0  0
   -9.9370    0.7306   -1.1159 C   0  0  0  0  0
   -9.3630   -0.0248    0.0341 C   0  0  0  0  0
   -0.3984    0.5839    0.3156 N   0  0  0  0  0
   -5.6209   -0.0972   -0.0439 N   0  0  0  0  0
   -7.9784   -0.5312   -0.2841 N   0  0  0  0  0
    4.6994   -1.5241   -0.6932 N   0  0  0  0  0
    5.7243   -0.8770   -0.3702 O   0  0  0  0  0
   -8.8825   -2.5401   -1.1407 O   0  0  0  0  0
    4.7675   -2.6486   -1.2450 O   0  0  0  0  0
   -7.2346    1.7489    0.7751 S   0  0  0  0  0
   -0.5549   -1.7261   -0.8209 S   0  0  0  0  0
  1  5  1  0  0  0
  2  6  1  0  0  0
  3  7  1  0  0  0
  4 24  1  0  0  0
  5 17  1  0  0  0
  6 20  1  0  0  0
  7 25  1  0  0  0
  8 11  1  0  0  0
  8 18  1  0  0  0
  9 12  1  0  0  0
  9 25  1  0  0  0
 10 19  1  0  0  0
 10 24  1  0  0  0
 13 19  1  0  0  0
 14 13  1  0  0  0
 15 16  1  0  0  0
 16 19  1  0  0  0
 20 21  1  0  0  0
  1  2  2  0  0  0
  3  6  2  0  0  0
  4  8  2  0  0  0
  5  7  2  0  0  0
  9 17  2  0  0  0
 10 18  2  0  0  0
 11 12  2  0  0  0
 13 22  2  0  0  0
 20 23  2  0  0  0
M  CHG  2  20   1  21  -1
M  END
> <rmsd>
0.509030282

$$$$
ZINC08704627


 25 27  0  0  0  0  0  0  0  0999 V2000
    2.0789    0.8470    0.4573 C   0  0  0  0  0
    3.3275    0.2803    0.1858 C   0  0  0  0  0
    2.2717   -1.6768   -0.7805 C   0  0  0  0  0
   -5.5503    2.0285    0.9311 C   0  0  0  0  0
    0.9022    0.1494    0.1084 C   0  0  0  0  0
    3.4204   -0.9654   -0.4250 C   0  0  0  0  0
    1.0208   -1.1015   -0.5049 C   0  0  0  0  0
   -4.8538    0.9421    0.4443 C   0  0  0  0  0
   -1.2403   -0.3179   -0.1326 C   0  0  0  0  0
   -6.8915    0.2182    0.0788 C   0  0  0  0  0
   -3.3847    0.8294    0.4188 C   0  0  0  0  0
   -2.6494   -0.2187   -0.0915 C   0  0  0  0  0
   -9.3555   -0.1040   -0.1115 C   0  0  0  0  0
  -10.3791   -0.4880   -1.1554 C   0  0  0  0  0
   -7.7428   -2.9807   -0.0273 C   0  0  0  0  0
   -7.7650   -1.8454   -0.9934 C   0  0  0  0  0
   -0.3988    0.5845    0.3147 N   0  0  0  0  0
   -5.6212   -0.0972   -0.0444 N   0  0  0  0  0
   -7.9787   -0.5315   -0.2844 N   0  0  0  0  0
    4.6993   -1.5238   -0.6928 N   0  0  0  0  0
    5.7240   -0.8764   -0.3701 O   0  0  0  0  0
   -9.7323    0.5865    0.8388 O   0  0  0  0  0
    4.7674   -2.6485   -1.2440 O   0  0  0  0  0
   -7.2350    1.7492    0.7735 S   0  0  0  0  0
   -0.5550   -1.7262   -0.8205 S   0  0  0  0  0
  1  5  1  0  0  0
  2  6  1  0  0  0
  3  7  1  0  0  0
  4 24  1  0  0  0
  5 17  1  0  0  0
  6 20  1  0  0  0
  7 25  1  0  0  0
  8 11  1  0  0  0
  8 18  1  0  0  0
  9 12  1  0  0  0
  9 25  1  0  0  0
 10 19  1  0  0  0
 10 24  1  0  0  0
 13 19  1  0  0  0
 14 13  1  0  0  0
 15 16  1  0  0  0
 16 19  1  0  0  0
 20 21  1  0  0  0
  1  2  2  0  0  0
  3  6  2  0  0  0
  4  8  2  0  0  0
  5  7  2  0  0  0
  9 17  2  0  0  0
 10 18  2  0  0  0
 11 12  2  0  0  0
 13 22  2  0  0  0
 20 23  2  0  0  0
M  CHG  2  20   1  21  -1
M  END
> <rmsd>
0.508938253

$$$$
ZINC08704627


 25 27  0  0  0  0  0  0  0  0999 V2000
    2.0791    0.8461    0.4582 C   0  0  0  0  0
    3.3277    0.2795    0.1864 C   0  0  0  0  0
    2.2718   -1.6770   -0.7809 C   0  0  0  0  0
   -5.5499    2.0279    0.9327 C   0  0  0  0  0
    0.9024    0.1488    0.1090 C   0  0  0  0  0
    3.4205   -0.9659   -0.4251 C   0  0  0  0  0
    1.0209   -1.1017   -0.5051 C   0  0  0  0  0
   -4.8535    0.9417    0.4454 C   0  0  0  0  0
   -1.2402   -0.3182   -0.1323 C   0  0  0  0  0
   -6.8913    0.2182    0.0794 C   0  0  0  0  0
   -3.3845    0.8290    0.4198 C   0  0  0  0  0
   -2.6492   -0.2190   -0.0911 C   0  0  0  0  0
   -7.8927   -1.8485   -0.8889 C   0  0  0  0  0
   -9.1640   -2.6311   -1.1253 C   0  0  0  0  0
   -9.7768   -0.4191    1.4111 C   0  0  0  0  0
   -9.3631   -0.0249    0.0340 C   0  0  0  0  0
   -0.3985    0.5839    0.3155 N   0  0  0  0  0
   -5.6210   -0.0972   -0.0439 N   0  0  0  0  0
   -7.9785   -0.5312   -0.2842 N   0  0  0  0  0
    4.6993   -1.5242   -0.6932 N   0  0  0  0  0
    5.7241   -0.8771   -0.3702 O   0  0  0  0  0
   -6.8230   -2.3794   -1.1983 O   0  0  0  0  0
    4.7674   -2.6486   -1.2450 O   0  0  0  0  0
   -7.2347    1.7488    0.7750 S   0  0  0  0  0
   -0.5550   -1.7262   -0.8210 S   0  0  0  0  0
  1  5  1  0  0  0
  2  6  1  0  0  0
  3  7  1  0  0  0
  4 24  1  0  0  0
  5 17  1  0  0  0
  6 20  1  0  0  0
  7 25  1  0  0  0
  8 11  1  0  0  0
  8 18  1  0  0  0
  9 12  1  0  0  0
  9 25  1  0  0  0
 10 19  1  0  0  0
 10 24  1  0  0  0
 13 19  1  0  0  0
 14 13  1  0  0  0
 15 16  1  0  0  0
 16 19  1  0  0  0
 20 21  1  0  0  0
  1  2  2  0  0  0
  3  6  2  0  0  0
  4  8  2  0  0  0
  5  7  2  0  0  0
  9 17  2  0  0  0
 10 18  2  0  0  0
 11 12  2  0  0  0
 13 22  2  0  0  0
 20 23  2  0  0  0
M  CHG  2  20   1  21  -1
M  END
> <rmsd>
0.509030282

$$$$
ZINC05490433


 28 31  0  0  0  0  0  0  0  0999 V2000
   -4.5888    0.1185    0.9505 C   0  0  0  0  0
    2.1377    1.3946    0.1901 C   0  0  0  0  0
    3.3044    0.6516    0.0108 C   0  0  0  0  0
   -0.8131    2.6769   -0.3679 C   0  0  0  0  0
   -2.0271    2.9685    0.2988 C   0  0  0  0  0
    1.9808   -1.3229   -0.4211 C   0  0  0  0  0
    0.8924    0.7789    0.0638 C   0  0  0  0  0
   -2.6124    1.8789    3.6784 C   0  0  0  0  0
    0.8140   -0.5799   -0.2418 C   0  0  0  0  0
    3.2260   -0.7072   -0.2948 C   0  0  0  0  0
   -0.2934    1.5654    0.2536 C   0  0  0  0  0
   -2.1629    2.0141    1.2800 C   0  0  0  0  0
   -1.9638    2.9029    4.3909 C   0  0  0  0  0
   -2.6484    0.8275    4.5542 C   0  0  0  0  0
   -3.8744    0.3701    2.1667 C   0  0  0  0  0
   -3.8314   -0.5876    3.1396 C   0  0  0  0  0
   -3.2009    1.7579    2.3143 C   0  0  0  0  0
   -0.5025   -1.2746   -0.3836 C   0  0  0  0  0
   -1.6622    4.2720    3.9396 C   0  0  0  0  0
   -5.1673   -0.0849   -0.0343 N   0  0  0  0  0
   -1.6043    2.5184    5.6230 N   0  0  0  0  0
   -2.0347    1.2417    5.6929 N   0  0  0  0  0
   -4.4108   -1.8243    3.0418 N   0  0  0  0  0
    4.4140   -1.4633   -0.4775 N   0  0  0  0  0
    5.5238   -0.8897   -0.3596 O   0  0  0  0  0
    4.3216   -2.6842   -0.7515 O   0  0  0  0  0
   -1.1102    1.1550    1.2592 O   0  0  0  0  0
   -3.1764   -0.3754    4.3704 O   0  0  0  0  0
  2  7  1  0  0  0
  3 10  1  0  0  0
  4  5  1  0  0  0
  6  9  1  0  0  0
  7 11  1  0  0  0
  8 13  1  0  0  0
 10 24  1  0  0  0
 11 27  1  0  0  0
 12 27  1  0  0  0
 14 22  1  0  0  0
 14 28  1  0  0  0
 15  1  1  0  0  0
 16 23  1  0  0  0
 16 28  1  0  0  0
 17  8  1  0  0  0
 17 12  1  0  0  0
 17 15  1  0  0  0
 18  9  1  0  0  0
 19 13  1  0  0  0
 22 21  1  0  0  0
 24 25  1  0  0  0
  2  3  2  0  0  0
  4 11  2  0  0  0
  5 12  2  0  0  0
  6 10  2  0  0  0
  7  9  2  0  0  0
  8 14  2  0  0  0
 13 21  2  0  0  0
 15 16  2  0  0  0
 24 26  2  0  0  0
  1 20  3  0  0  0
M  CHG  2  24   1  25  -1
M  END
> <rmsd>
0.55490613

$$$$
ZINC39963745


 28 31  0  0  0  0  0  0  0  0999 V2000
   -4.5911    0.1498    0.9385 C   0  0  0  0  0
    2.1143    1.3883    0.1100 C   0  0  0  0  0
    3.2882    0.6515   -0.0464 C   0  0  0  0  0
   -0.8601    2.6031   -0.4734 C   0  0  0  0  0
   -2.0690    2.9140    0.1938 C   0  0  0  0  0
    1.9850   -1.3590   -0.3569 C   0  0  0  0  0
    0.8757    0.7514    0.0330 C   0  0  0  0  0
    0.8110   -0.6223   -0.2005 C   0  0  0  0  0
    3.2236   -0.7222   -0.2798 C   0  0  0  0  0
   -0.3178    1.5320    0.1980 C   0  0  0  0  0
   -2.1794    2.0106    1.2251 C   0  0  0  0  0
   -3.8831    0.4261    2.1532 C   0  0  0  0  0
   -2.6837    1.9823    3.6790 C   0  0  0  0  0
   -1.7557    2.7378    4.2720 C   0  0  0  0  0
   -3.8243   -0.5120    3.1330 C   0  0  0  0  0
   -3.2025    1.7954    2.2874 C   0  0  0  0  0
   -3.2315    1.1111    4.7528 C   0  0  0  0  0
   -0.4980   -1.3396   -0.2879 C   0  0  0  0  0
   -0.9057    3.8109    3.6917 C   0  0  0  0  0
   -5.1644   -0.0737   -0.0450 N   0  0  0  0  0
   -1.6150    2.4294    5.6043 N   0  0  0  0  0
   -2.4003    1.4945    5.9262 N   0  0  0  0  0
   -4.3554   -1.7704    3.0438 N   0  0  0  0  0
    4.4189   -1.4720   -0.4392 N   0  0  0  0  0
    5.5226   -0.8794   -0.3665 O   0  0  0  0  0
    4.3389   -2.7067   -0.6481 O   0  0  0  0  0
   -1.1159    1.1646    1.2345 O   0  0  0  0  0
   -3.1891   -0.2620    4.3486 O   0  0  0  0  0
  2  7  1  0  0  0
  3  9  1  0  0  0
  4  5  1  0  0  0
  6  8  1  0  0  0
  7 10  1  0  0  0
  9 24  1  0  0  0
 10 27  1  0  0  0
 11 27  1  0  0  0
 12  1  1  0  0  0
 14 21  1  0  0  0
 15 23  1  0  0  0
 15 28  1  0  0  0
 16 11  1  0  0  0
 16 12  1  0  0  0
 16 13  1  0  0  0
 17 13  1  0  0  0
 17 22  1  0  0  0
 17 28  1  0  0  0
 18  8  1  0  0  0
 19 14  1  0  0  0
 24 25  1  0  0  0
  2  3  2  0  0  0
  4 10  2  0  0  0
  5 11  2  0  0  0
  6  9  2  0  0  0
  7  8  2  0  0  0
 12 15  2  0  0  0
 13 14  2  0  0  0
 21 22  2  0  0  0
 24 26  2  0  0  0
  1 20  3  0  0  0
M  CHG  2  24   1  25  -1
M  END
> <rmsd>
0.556896865

$$$$
ZINC39963749


 28 31  0  0  0  0  0  0  0  0999 V2000
   -4.6031    0.1379    0.9411 C   0  0  0  0  0
    2.1318    1.3873    0.1409 C   0  0  0  0  0
    3.3040    0.6494   -0.0232 C   0  0  0  0  0
   -0.8322    2.6289   -0.4379 C   0  0  0  0  0
   -2.0456    2.9287    0.2262 C   0  0  0  0  0
    1.9952   -1.3474   -0.3937 C   0  0  0  0  0
    0.8913    0.7579    0.0379 C   0  0  0  0  0
    0.8230   -0.6094   -0.2294 C   0  0  0  0  0
    3.2358   -0.7179   -0.2906 C   0  0  0  0  0
   -0.3003    1.5395    0.2117 C   0  0  0  0  0
   -2.1687    2.0009    1.2342 C   0  0  0  0  0
   -3.8787    0.4013    2.1493 C   0  0  0  0  0
   -2.6396    1.9102    3.6516 C   0  0  0  0  0
   -2.5245    2.9231    4.5098 C   0  0  0  0  0
   -3.8625   -0.5226    3.1461 C   0  0  0  0  0
   -3.2018    1.7644    2.2823 C   0  0  0  0  0
   -2.1929    0.6995    4.3817 C   0  0  0  0  0
   -0.4882   -1.3187   -0.3454 C   0  0  0  0  0
   -2.8853    4.3499    4.3077 C   0  0  0  0  0
   -5.1893   -0.0751   -0.0370 N   0  0  0  0  0
   -2.0318    2.5108    5.7239 N   0  0  0  0  0
   -1.8439    1.2601    5.7192 N   0  0  0  0  0
   -4.5019   -1.7324    3.0879 N   0  0  0  0  0
    4.4293   -1.4688   -0.4580 N   0  0  0  0  0
    5.5347   -0.8831   -0.3614 O   0  0  0  0  0
    4.3460   -2.6977   -0.6975 O   0  0  0  0  0
   -1.1088    1.1504    1.2322 O   0  0  0  0  0
   -3.2045   -0.3141    4.3554 O   0  0  0  0  0
  2  7  1  0  0  0
  3  9  1  0  0  0
  4  5  1  0  0  0
  6  8  1  0  0  0
  7 10  1  0  0  0
  9 24  1  0  0  0
 10 27  1  0  0  0
 11 27  1  0  0  0
 12  1  1  0  0  0
 14 21  1  0  0  0
 15 23  1  0  0  0
 15 28  1  0  0  0
 16 11  1  0  0  0
 16 12  1  0  0  0
 16 13  1  0  0  0
 17 13  1  0  0  0
 17 22  1  0  0  0
 17 28  1  0  0  0
 18  8  1  0  0  0
 19 14  1  0  0  0
 24 25  1  0  0  0
  2  3  2  0  0  0
  4 10  2  0  0  0
  5 11  2  0  0  0
  6  9  2  0  0  0
  7  8  2  0  0  0
 12 15  2  0  0  0
 13 14  2  0  0  0
 21 22  2  0  0  0
 24 26  2  0  0  0
  1 20  3  0  0  0
M  CHG  2  24   1  25  -1
M  END
> <rmsd>
0.552044511

$$$$
ZINC38568822


 27 29  0  0  0  0  0  0  0  0999 V2000
    2.0819    1.3836    0.0926 C   0  0  0  0  0
    3.2585    0.6499   -0.0584 C   0  0  0  0  0
    1.9627   -1.3684   -0.3486 C   0  0  0  0  0
    0.7861   -0.6347   -0.1975 C   0  0  0  0  0
    0.8456    0.7413    0.0231 C   0  0  0  0  0
    3.1990   -0.7261   -0.2791 C   0  0  0  0  0
   -0.4237    2.8604    0.4013 C   0  0  0  0  0
   -1.8472    3.3167    0.5148 C   0  0  0  0  0
   -4.6219   -0.0080    4.1695 C   0  0  0  0  0
   -5.8049    0.7513    3.5748 C   0  0  0  0  0
   -3.3692    0.1314    3.3088 C   0  0  0  0  0
   -6.0689    0.3344    2.1293 C   0  0  0  0  0
   -3.6327   -0.2830    1.8623 C   0  0  0  0  0
   -4.6354    0.9091   -0.9668 C   0  0  0  0  0
   -4.8401    2.2023   -0.2176 C   0  0  0  0  0
   -4.8199    0.4693    1.2526 C   0  0  0  0  0
   -0.5244   -1.3487   -0.2758 C   0  0  0  0  0
   -3.9923    3.3483   -0.7262 C   0  0  0  0  0
   -0.3357    1.5025    0.1792 N   0  0  0  0  0
   -2.6047    3.0288   -0.6082 N   0  0  0  0  0
    4.3970   -1.4726   -0.4328 N   0  0  0  0  0
    5.4984   -0.8752   -0.3666 O   0  0  0  0  0
    0.4373    3.7186    0.5004 O   0  0  0  0  0
   -2.1926    3.8617    1.5509 O   0  0  0  0  0
    4.3216   -2.7095   -0.6300 O   0  0  0  0  0
   -5.1098   -0.0746   -0.0469 O   0  0  0  0  0
   -4.4706    1.8597    1.1202 O   0  0  0  0  0
  1  5  1  0  0  0
  2  6  1  0  0  0
  3  4  1  0  0  0
  5 19  1  0  0  0
  6 21  1  0  0  0
  7  8  1  0  0  0
  7 19  1  0  0  0
  8 20  1  0  0  0
  9 10  1  0  0  0
  9 11  1  0  0  0
 10 12  1  0  0  0
 11 13  1  0  0  0
 12 16  1  0  0  0
 13 16  1  0  0  0
 14 15  1  0  0  0
 14 26  1  0  0  0
 15 18  1  0  0  0
 15 27  1  0  0  0
 16 26  1  0  0  0
 16 27  1  0  0  0
 17  4  1  0  0  0
 18 20  1  0  0  0
 21 22  1  0  0  0
  1  2  2  0  0  0
  3  6  2  0  0  0
  4  5  2  0  0  0
  7 23  2  0  0  0
  8 24  2  0  0  0
 21 25  2  0  0  0
M  CHG  2  21   1  22  -1
M  END
> <rmsd>
0.575383008

$$$$
ZINC12971079


 26 28  0  0  0  0  0  0  0  0999 V2000
   -4.7572    3.1917    1.1805 C   0  0  0  0  0
   -6.9377    2.2151    0.8218 C   0  0  0  0  0
    2.0453    0.8877    0.2946 C   0  0  0  0  0
    3.2999    0.3049    0.0763 C   0  0  0  0  0
   -5.3578    4.3699    1.6239 C   0  0  0  0  0
   -7.5383    3.3933    1.2654 C   0  0  0  0  0
    2.2791   -1.7726   -0.6834 C   0  0  0  0  0
   -5.5472    2.1143    0.7793 C   0  0  0  0  0
    0.8959    0.1279    0.0192 C   0  0  0  0  0
    1.0400   -1.1716   -0.4585 C   0  0  0  0  0
    3.4125   -1.0019   -0.4041 C   0  0  0  0  0
   -6.7484    4.4707    1.6664 C   0  0  0  0  0
   -1.0896   -0.6117   -0.2456 C   0  0  0  0  0
   -4.9042    0.8522    0.3047 C   0  0  0  0  0
   -3.3884    0.7872    0.2758 C   0  0  0  0  0
   -8.6013    5.5103    2.7355 C   0  0  0  0  0
   -0.4339    0.4581    0.1453 N   0  0  0  0  0
   -0.2458   -1.6204   -0.6189 N   0  0  0  0  0
    4.7023   -1.5611   -0.6129 N   0  0  0  0  0
    5.7139   -0.8644   -0.3595 O   0  0  0  0  0
   -5.6241   -0.0832   -0.0372 O   0  0  0  0  0
    4.7919   -2.7354   -1.0441 O   0  0  0  0  0
   -7.3341    5.6206    2.0981 O   0  0  0  0  0
   -8.6996    6.5271    3.6306 F   0  0  0  0  0
   -9.5795    5.7085    1.8181 F   0  0  0  0  0
   -2.7973   -0.8250   -0.3183 S   0  0  0  0  0
  1  5  1  0  0  0
  2  8  1  0  0  0
  3  9  1  0  0  0
  4 11  1  0  0  0
  6 12  1  0  0  0
  7 10  1  0  0  0
  8 14  1  0  0  0
  9 17  1  0  0  0
 10 18  1  0  0  0
 11 19  1  0  0  0
 12 23  1  0  0  0
 13 18  1  0  0  0
 13 26  1  0  0  0
 15 14  1  0  0  0
 15 26  1  0  0  0
 16 23  1  0  0  0
 16 24  1  0  0  0
 16 25  1  0  0  0
 19 20  1  0  0  0
  1  8  2  0  0  0
  2  6  2  0  0  0
  3  4  2  0  0  0
  5 12  2  0  0  0
  7 11  2  0  0  0
  9 10  2  0  0  0
 13 17  2  0  0  0
 14 21  2  0  0  0
 19 22  2  0  0  0
M  CHG  2  19   1  20  -1
M  END
> <rmsd>
0.515904486

$$$$
ZINC12971079


 26 28  0  0  0  0  0  0  0  0999 V2000
   -4.7571    3.1902    1.1852 C   0  0  0  0  0
   -6.9376    2.2140    0.8253 C   0  0  0  0  0
    2.0453    0.8872    0.2966 C   0  0  0  0  0
    3.3000    0.3045    0.0776 C   0  0  0  0  0
   -5.3577    4.3679    1.6299 C   0  0  0  0  0
   -7.5382    3.3918    1.2703 C   0  0  0  0  0
    2.2791   -1.7721   -0.6844 C   0  0  0  0  0
   -5.5471    2.1133    0.7827 C   0  0  0  0  0
    0.8959    0.1277    0.0203 C   0  0  0  0  0
    1.0401   -1.1713   -0.4589 C   0  0  0  0  0
    3.4125   -1.0017   -0.4043 C   0  0  0  0  0
   -6.7483    4.4686    1.6725 C   0  0  0  0  0
   -1.0896   -0.6116   -0.2453 C   0  0  0  0  0
   -4.9041    0.8517    0.3067 C   0  0  0  0  0
   -3.3883    0.7868    0.2777 C   0  0  0  0  0
   -6.6301    6.8347    1.8845 C   0  0  0  0  0
   -0.4339    0.4577    0.1467 N   0  0  0  0  0
   -0.2458   -1.6199   -0.6198 N   0  0  0  0  0
    4.7023   -1.5607   -0.6138 N   0  0  0  0  0
    5.7139   -0.8643   -0.3596 O   0  0  0  0  0
   -5.6241   -0.0833   -0.0363 O   0  0  0  0  0
    4.7919   -2.7345   -1.0464 O   0  0  0  0  0
   -7.3340    5.6181    2.1056 O   0  0  0  0  0
   -7.5522    7.8217    1.7425 F   0  0  0  0  0
   -5.9080    7.1382    2.9910 F   0  0  0  0  0
   -2.7973   -0.8249   -0.3182 S   0  0  0  0  0
  1  5  1  0  0  0
  2  8  1  0  0  0
  3  9  1  0  0  0
  4 11  1  0  0  0
  6 12  1  0  0  0
  7 10  1  0  0  0
  8 14  1  0  0  0
  9 17  1  0  0  0
 10 18  1  0  0  0
 11 19  1  0  0  0
 12 23  1  0  0  0
 13 18  1  0  0  0
 13 26  1  0  0  0
 15 14  1  0  0  0
 15 26  1  0  0  0
 16 23  1  0  0  0
 16 24  1  0  0  0
 16 25  1  0  0  0
 19 20  1  0  0  0
  1  8  2  0  0  0
  2  6  2  0  0  0
  3  4  2  0  0  0
  5 12  2  0  0  0
  7 11  2  0  0  0
  9 10  2  0  0  0
 13 17  2  0  0  0
 14 21  2  0  0  0
 19 22  2  0  0  0
M  CHG  2  19   1  20  -1
M  END
> <rmsd>
0.515887022

$$$$
ZINC25951740


 26 28  0  0  0  0  0  0  0  0999 V2000
    2.3148   -3.0814   -5.0444 C   0  0  0  0  0
    1.4788   -3.6679   -4.0944 C   0  0  0  0  0
    3.4405   -2.3659   -4.6360 C   0  0  0  0  0
    1.7682   -3.5389   -2.7360 C   0  0  0  0  0
    3.7299   -2.2369   -3.2776 C   0  0  0  0  0
   -2.4991    0.3681   -1.1569 C   0  0  0  0  0
   -2.5536    0.2376    1.2549 C   0  0  0  0  0
   -3.8840    0.2075   -1.1970 C   0  0  0  0  0
   -3.9386    0.0771    1.2149 C   0  0  0  0  0
    2.8937   -2.8233   -2.3275 C   0  0  0  0  0
   -1.8338    0.3831    0.0691 C   0  0  0  0  0
   -4.6038    0.0620   -0.0111 C   0  0  0  0  0
    4.3524   -0.5185   -0.2380 C   0  0  0  0  0
    2.1833   -0.4646   -0.2051 C   0  0  0  0  0
    3.2031   -2.6851   -0.8750 C   0  0  0  0  0
   -0.3405    0.5565    0.1122 C   0  0  0  0  0
   -6.7224    0.3920    1.0449 C   0  0  0  0  0
    3.9931    0.6921    0.1251 N   0  0  0  0  0
    2.6131    0.7263    0.1460 N   0  0  0  0  0
    3.2447   -1.2802   -0.4561 N   0  0  0  0  0
    5.5036   -0.8730   -0.3520 O   0  0  0  0  0
   -5.9553   -0.0936   -0.0512 O   0  0  0  0  0
   -6.1263    1.4575    1.6208 F   0  0  0  0  0
   -6.8189   -0.5846    1.9757 F   0  0  0  0  0
   -7.9726    0.7201    0.6556 F   0  0  0  0  0
    0.5397   -0.9658   -0.3446 S   0  0  0  0  0
  1  2  1  0  0  0
  3  5  1  0  0  0
  4 10  1  0  0  0
  6 11  1  0  0  0
  7  9  1  0  0  0
  8 12  1  0  0  0
 12 22  1  0  0  0
 13 18  1  0  0  0
 13 20  1  0  0  0
 14 20  1  0  0  0
 14 26  1  0  0  0
 15 10  1  0  0  0
 15 20  1  0  0  0
 16 11  1  0  0  0
 16 26  1  0  0  0
 17 22  1  0  0  0
 17 23  1  0  0  0
 17 24  1  0  0  0
 17 25  1  0  0  0
 18 19  1  0  0  0
  1  3  2  0  0  0
  2  4  2  0  0  0
  5 10  2  0  0  0
  6  8  2  0  0  0
  7 11  2  0  0  0
  9 12  2  0  0  0
 13 21  2  0  0  0
 14 19  2  0  0  0
M  CHG  1  21  -1
M  END
> <rmsd>
0.737491667

$$$$
ZINC59596687


 28 31  0  0  0  0  0  0  0  0999 V2000
   -3.5411   -0.3343   -3.7980 C   0  0  0  0  0
   -4.8304    0.1902   -3.7059 C   0  0  0  0  0
   -2.8800   -0.7660   -2.6482 C   0  0  0  0  0
   -5.4583    0.2831   -2.4638 C   0  0  0  0  0
    1.5013    0.7440   -0.9408 C   0  0  0  0  0
    2.6965   -1.1773    0.7239 C   0  0  0  0  0
    0.6806   -3.1788    1.9050 C   0  0  0  0  0
    0.6970   -0.2264   -0.3377 C   0  0  0  0  0
    1.3221   -1.1800    0.4936 C   0  0  0  0  0
   -3.5080   -0.6732   -1.4062 C   0  0  0  0  0
    2.8814    0.7582   -0.7183 C   0  0  0  0  0
    3.4749   -0.1976    0.1099 C   0  0  0  0  0
   -4.7972   -0.1487   -1.3139 C   0  0  0  0  0
   -0.8701   -2.1026    0.8248 C   0  0  0  0  0
   -1.4812   -1.1138   -0.0310 C   0  0  0  0  0
   -5.2431    1.1616    0.6201 C   0  0  0  0  0
   -0.4711   -3.7672    2.1576 N   0  0  0  0  0
   -1.4591   -3.0827    1.4700 N   0  0  0  0  0
   -0.7027   -0.2122   -0.5851 N   0  0  0  0  0
    0.4725   -2.1258    1.0694 N   0  0  0  0  0
   -2.8357   -1.1081   -0.2655 N   0  0  0  0  0
    3.6601    1.7675   -1.3534 N   0  0  0  0  0
    4.8791   -0.1969    0.3480 N   0  0  0  0  0
    3.8431    2.8537   -0.7569 O   0  0  0  0  0
    5.6215   -0.8549   -0.4169 O   0  0  0  0  0
    4.1376    1.5368   -2.4884 O   0  0  0  0  0
    5.3272    0.4621    1.3146 O   0  0  0  0  0
   -5.4282   -0.0493   -0.1098 O   0  0  0  0  0
  1  2  1  0  0  0
  3 10  1  0  0  0
  4 13  1  0  0  0
  5  8  1  0  0  0
  6  9  1  0  0  0
  7 20  1  0  0  0
  8 19  1  0  0  0
  9 20  1  0  0  0
 10 21  1  0  0  0
 11 12  1  0  0  0
 11 22  1  0  0  0
 12 23  1  0  0  0
 13 28  1  0  0  0
 14 15  1  0  0  0
 14 20  1  0  0  0
 15 21  1  0  0  0
 16 28  1  0  0  0
 17 18  1  0  0  0
 22 24  1  0  0  0
 23 25  1  0  0  0
  1  3  2  0  0  0
  2  4  2  0  0  0
  5 11  2  0  0  0
  6 12  2  0  0  0
  7 17  2  0  0  0
  8  9  2  0  0  0
 10 13  2  0  0  0
 14 18  2  0  0  0
 15 19  2  0  0  0
 22 26  2  0  0  0
 23 27  2  0  0  0
M  CHG  4  22   1  23   1  24  -1  25  -1
M  END
> <rmsd>
0.47082153

$$$$
ZINC59417530


 24 26  0  0  0  0  0  0  0  0999 V2000
   -4.9936    2.0531    2.5613 C   0  0  0  0  0
    1.9476    0.8814    0.1925 C   0  0  0  0  0
    3.2123    0.3135    0.0130 C   0  0  0  0  0
   -5.5316    3.1222    3.2776 C   0  0  0  0  0
    2.2139   -1.8012   -0.6274 C   0  0  0  0  0
   -6.6668    3.8853    1.2861 C   0  0  0  0  0
   -5.2921    1.9001    1.2073 C   0  0  0  0  0
    0.7917    0.1047   -0.0389 C   0  0  0  0  0
    3.3415   -1.0105   -0.3916 C   0  0  0  0  0
    0.9467   -1.2242   -0.4453 C   0  0  0  0  0
   -6.3683    4.0382    2.6401 C   0  0  0  0  0
   -6.1287    2.8162    0.5698 C   0  0  0  0  0
   -1.3363   -0.4544   -0.1994 C   0  0  0  0  0
   -4.6954    0.7454    0.4868 C   0  0  0  0  0
   -0.5214    0.5308    0.0973 N   0  0  0  0  0
   -2.6922   -0.3623   -0.1630 N   0  0  0  0  0
   -3.3151    0.6978    0.4781 N   0  0  0  0  0
    4.6359   -1.5690   -0.5671 N   0  0  0  0  0
    5.6415   -0.8506   -0.3517 O   0  0  0  0  0
   -5.4347   -0.0859   -0.0342 O   0  0  0  0  0
    4.7371   -2.7648   -0.9321 O   0  0  0  0  0
   -0.6103   -1.9347   -0.6549 S   0  0  0  0  0
   -7.0327    5.3574    3.5238 Cl  0  0  0  0  0
   -6.5198    2.6636   -1.1056 Cl  0  0  0  0  0
  1  7  1  0  0  0
  2  3  1  0  0  0
  4 11  1  0  0  0
  5  9  1  0  0  0
  6 12  1  0  0  0
  7 14  1  0  0  0
  8 10  1  0  0  0
  8 15  1  0  0  0
  9 18  1  0  0  0
 10 22  1  0  0  0
 11 23  1  0  0  0
 12 24  1  0  0  0
 13 16  1  0  0  0
 13 22  1  0  0  0
 14 17  1  0  0  0
 16 17  1  0  0  0
 18 19  1  0  0  0
  1  4  2  0  0  0
  2  8  2  0  0  0
  3  9  2  0  0  0
  5 10  2  0  0  0
  6 11  2  0  0  0
  7 12  2  0  0  0
 13 15  2  0  0  0
 14 20  2  0  0  0
 18 21  2  0  0  0
M  CHG  2  18   1  19  -1
M  END
> <rmsd>
0.541221201

$$$$
ZINC59417530


 24 26  0  0  0  0  0  0  0  0999 V2000
   -4.9894    3.1828    0.7570 C   0  0  0  0  0
    1.9475    0.8810    0.1942 C   0  0  0  0  0
    3.2121    0.3133    0.0142 C   0  0  0  0  0
   -5.5268    4.2955    1.4041 C   0  0  0  0  0
    2.2137   -1.8006   -0.6285 C   0  0  0  0  0
   -6.6698    2.8402    2.9573 C   0  0  0  0  0
   -5.2922    1.8988    1.2101 C   0  0  0  0  0
    0.7915    0.1046   -0.0380 C   0  0  0  0  0
    3.3413   -1.0102   -0.3918 C   0  0  0  0  0
    0.9465   -1.2239   -0.4458 C   0  0  0  0  0
   -6.3670    4.1243    2.5042 C   0  0  0  0  0
   -6.1323    1.7275    2.3103 C   0  0  0  0  0
   -1.3365   -0.4544   -0.1991 C   0  0  0  0  0
   -4.6955    0.7448    0.4884 C   0  0  0  0  0
   -0.5216    0.5305    0.0987 N   0  0  0  0  0
   -2.6924   -0.3622   -0.1626 N   0  0  0  0  0
   -3.3153    0.6972    0.4796 N   0  0  0  0  0
    4.6357   -1.5686   -0.5679 N   0  0  0  0  0
    5.6413   -0.8504   -0.3518 O   0  0  0  0  0
   -5.4348   -0.0859   -0.0335 O   0  0  0  0  0
    4.7369   -2.7640   -0.9342 O   0  0  0  0  0
   -0.6104   -1.9342   -0.6561 S   0  0  0  0  0
   -7.0300    5.4970    3.3031 Cl  0  0  0  0  0
   -6.5341    0.1546    2.8998 Cl  0  0  0  0  0
  1  7  1  0  0  0
  2  3  1  0  0  0
  4 11  1  0  0  0
  5  9  1  0  0  0
  6 12  1  0  0  0
  7 14  1  0  0  0
  8 10  1  0  0  0
  8 15  1  0  0  0
  9 18  1  0  0  0
 10 22  1  0  0  0
 11 23  1  0  0  0
 12 24  1  0  0  0
 13 16  1  0  0  0
 13 22  1  0  0  0
 14 17  1  0  0  0
 16 17  1  0  0  0
 18 19  1  0  0  0
  1  4  2  0  0  0
  2  8  2  0  0  0
  3  9  2  0  0  0
  5 10  2  0  0  0
  6 11  2  0  0  0
  7 12  2  0  0  0
 13 15  2  0  0  0
 14 20  2  0  0  0
 18 21  2  0  0  0
M  CHG  2  18   1  19  -1
M  END
> <rmsd>
0.541209698

$$$$
ZINC59417530


 24 26  0  0  0  0  0  0  0  0999 V2000
   -6.1825    2.5748   -1.1493 C   0  0  0  0  0
    1.9469    0.9033    0.1095 C   0  0  0  0  0
    3.2119    0.3286   -0.0445 C   0  0  0  0  0
   -6.7730    3.8374   -1.2006 C   0  0  0  0  0
    2.2149   -1.8259   -0.5377 C   0  0  0  0  0
   -5.6114    4.4629    0.8234 C   0  0  0  0  0
   -5.3064    2.2562   -0.1116 C   0  0  0  0  0
    0.7917    0.1099   -0.0605 C   0  0  0  0  0
    3.3419   -1.0184   -0.3639 C   0  0  0  0  0
    0.9475   -1.2420   -0.3815 C   0  0  0  0  0
   -6.4874    4.7815   -0.2142 C   0  0  0  0  0
   -5.0208    3.2003    0.8747 C   0  0  0  0  0
   -1.3358   -0.4645   -0.1647 C   0  0  0  0  0
   -4.7020    0.8985   -0.1000 C   0  0  0  0  0
   -0.5217    0.5402    0.0600 N   0  0  0  0  0
   -2.6916   -0.3741   -0.1217 N   0  0  0  0  0
   -3.3222    0.8606   -0.1457 N   0  0  0  0  0
    4.6366   -1.5833   -0.5149 N   0  0  0  0  0
    5.6417   -0.8497   -0.3558 O   0  0  0  0  0
   -5.4346   -0.0857   -0.0388 O   0  0  0  0  0
    4.7387   -2.8000   -0.8028 O   0  0  0  0  0
   -0.6088   -1.9691   -0.5303 S   0  0  0  0  0
   -7.2156    6.3398   -0.2774 Cl  0  0  0  0  0
   -3.9443    2.8435    2.1774 Cl  0  0  0  0  0
  1  7  1  0  0  0
  2  3  1  0  0  0
  4 11  1  0  0  0
  5  9  1  0  0  0
  6 12  1  0  0  0
  7 14  1  0  0  0
  8 10  1  0  0  0
  8 15  1  0  0  0
  9 18  1  0  0  0
 10 22  1  0  0  0
 11 23  1  0  0  0
 12 24  1  0  0  0
 13 16  1  0  0  0
 13 22  1  0  0  0
 14 17  1  0  0  0
 16 17  1  0  0  0
 18 19  1  0  0  0
  1  4  2  0  0  0
  2  8  2  0  0  0
  3  9  2  0  0  0
  5 10  2  0  0  0
  6 11  2  0  0  0
  7 12  2  0  0  0
 13 15  2  0  0  0
 14 20  2  0  0  0
 18 21  2  0  0  0
M  CHG  2  18   1  19  -1
M  END
> <rmsd>
0.53775537

$$$$
ZINC90744830


 28 30  0  0  0  0  0  0  0  0999 V2000
    1.5636   -1.6611   -0.1126 C   0  0  0  0  0
   -3.4906    2.0789    2.3706 C   0  0  0  0  0
    2.9344   -1.4195   -0.2025 C   0  0  0  0  0
   -3.9954    0.9002    1.8183 C   0  0  0  0  0
   -4.3014    3.3676    0.4703 C   0  0  0  0  0
    2.5114    0.9585   -0.2593 C   0  0  0  0  0
   -4.7871    2.1915   -0.0704 C   0  0  0  0  0
   -3.6413    3.3046    1.7004 C   0  0  0  0  0
    0.6666   -0.5930   -0.0961 C   0  0  0  0  0
    1.1406    0.7169   -0.1696 C   0  0  0  0  0
    3.4083   -0.1097   -0.2758 C   0  0  0  0  0
   -4.6327    0.9849    0.5957 C   0  0  0  0  0
    0.5750    3.1505   -0.2194 C   0  0  0  0  0
   -0.6411    4.0262   -0.1771 C   0  0  0  0  0
   -5.5683    1.9727   -1.3070 C   0  0  0  0  0
   -5.4694    0.4486   -1.3870 C   0  0  0  0  0
   -0.7962   -0.8818    0.0006 C   0  0  0  0  0
   -2.0967    5.2713    1.3955 C   0  0  0  0  0
   -3.0992    4.5524    2.3139 C   0  0  0  0  0
    0.2474    1.8128   -0.1540 N   0  0  0  0  0
   -0.9742    4.4090    1.1015 N   0  0  0  0  0
    4.8041    0.1358   -0.3672 N   0  0  0  0  0
    5.5932   -0.8395   -0.3804 O   0  0  0  0  0
    1.6530    3.7125   -0.3183 O   0  0  0  0  0
   -1.1781    4.3111   -1.2355 O   0  0  0  0  0
    5.2097    1.3213   -0.4323 O   0  0  0  0  0
   -5.1876   -0.0792   -0.0689 O   0  0  0  0  0
   -4.1840    5.4436    2.6060 O   0  0  0  0  0
  1  9  1  0  0  0
  2  8  1  0  0  0
  3 11  1  0  0  0
  4 12  1  0  0  0
  5  7  1  0  0  0
  6 10  1  0  0  0
 10 20  1  0  0  0
 11 22  1  0  0  0
 12 27  1  0  0  0
 13 14  1  0  0  0
 13 20  1  0  0  0
 14 21  1  0  0  0
 15  7  1  0  0  0
 15 16  1  0  0  0
 16 27  1  0  0  0
 17  9  1  0  0  0
 18 19  1  0  0  0
 18 21  1  0  0  0
 19  8  1  0  0  0
 19 28  1  0  0  0
 22 23  1  0  0  0
  1  3  2  0  0  0
  2  4  2  0  0  0
  5  8  2  0  0  0
  6 11  2  0  0  0
  7 12  2  0  0  0
  9 10  2  0  0  0
 13 24  2  0  0  0
 14 25  2  0  0  0
 22 26  2  0  0  0
M  CHG  2  22   1  23  -1
M  END
> <rmsd>
0.613797069

$$$$
ZINC40074523


 26 27  0  0  0  0  0  0  0  0999 V2000
   -4.9569    1.3838    1.8251 C   0  0  0  0  0
    2.1906    1.4379    0.0417 C   0  0  0  0  0
   -3.9155    2.0493    1.1880 C   0  0  0  0  0
    3.3540    0.6832   -0.1078 C   0  0  0  0  0
    2.0336   -1.3391   -0.1743 C   0  0  0  0  0
   -5.5700    0.3411    1.1493 C   0  0  0  0  0
    0.9487    0.8042    0.0833 C   0  0  0  0  0
   -3.5246    1.6573   -0.0875 C   0  0  0  0  0
    3.2756   -0.7053   -0.2159 C   0  0  0  0  0
    0.8702   -0.5843   -0.0247 C   0  0  0  0  0
   -4.2017    0.6023   -0.6776 C   0  0  0  0  0
   -0.2397    1.6331    0.2432 C   0  0  0  0  0
   -2.4013    2.3687   -0.7849 C   0  0  0  0  0
   -4.5816   -0.9014   -2.4806 C   0  0  0  0  0
   -4.0408   -1.2238   -3.8493 C   0  0  0  0  0
   -5.2179   -0.0683   -0.0901 N   0  0  0  0  0
   -1.1849    1.5881   -0.7861 N   0  0  0  0  0
    4.4601   -1.4733   -0.3705 N   0  0  0  0  0
    5.5667   -0.8831   -0.4075 O   0  0  0  0  0
   -0.3728    2.3529    1.2467 O   0  0  0  0  0
    4.3676   -2.7210   -0.4655 O   0  0  0  0  0
   -3.8457    0.1864   -1.9344 O   0  0  0  0  0
   -4.1466   -0.1533   -4.6669 F   0  0  0  0  0
   -4.7201   -2.2430   -4.4166 F   0  0  0  0  0
   -2.7373   -1.5693   -3.7918 F   0  0  0  0  0
   -0.6475   -1.4070    0.0237 Cl  0  0  0  0  0
  1  3  1  0  0  0
  2  7  1  0  0  0
  4  9  1  0  0  0
  5 10  1  0  0  0
  6 16  1  0  0  0
  7 12  1  0  0  0
  8 11  1  0  0  0
  9 18  1  0  0  0
 10 26  1  0  0  0
 11 22  1  0  0  0
 12 17  1  0  0  0
 13  8  1  0  0  0
 13 17  1  0  0  0
 14 15  1  0  0  0
 14 22  1  0  0  0
 15 23  1  0  0  0
 15 24  1  0  0  0
 15 25  1  0  0  0
 18 19  1  0  0  0
  1  6  2  0  0  0
  2  4  2  0  0  0
  3  8  2  0  0  0
  5  9  2  0  0  0
  7 10  2  0  0  0
 11 16  2  0  0  0
 12 20  2  0  0  0
 18 21  2  0  0  0
M  CHG  2  18   1  19  -1
M  END
> <rmsd>
0.560032904

$$$$
ZINC40082978


 27 29  0  0  0  0  0  0  0  0999 V2000
   -5.5068    1.2386   -3.5375 C   0  0  0  0  0
    3.1189   -1.4077   -0.0581 C   0  0  0  0  0
   -5.8969    0.5686   -2.3769 C   0  0  0  0  0
    1.7546   -1.6388    0.1176 C   0  0  0  0  0
    2.6759    0.9416   -0.4071 C   0  0  0  0  0
   -3.8880    1.3112   -1.1966 C   0  0  0  0  0
   -4.3131    1.9263   -3.4872 C   0  0  0  0  0
    1.3116    0.7105   -0.2314 C   0  0  0  0  0
   -3.5087    1.9722   -2.3503 C   0  0  0  0  0
    3.5796   -0.1175   -0.3203 C   0  0  0  0  0
   -5.0960    0.6045   -1.2182 C   0  0  0  0  0
    0.8509   -0.5798    0.0308 C   0  0  0  0  0
   -3.6369    2.7141   -4.5144 C   0  0  0  0  0
   -2.3507    3.2365   -3.8855 C   0  0  0  0  0
    0.5776    1.9571   -2.7178 C   0  0  0  0  0
   -4.6566    0.0095    1.0420 C   0  0  0  0  0
    0.3718    1.8770   -0.3320 C   0  0  0  0  0
   -1.3200    2.9902   -1.6189 C   0  0  0  0  0
   -2.3568    2.7443   -2.5914 N   0  0  0  0  0
   -0.3649    1.8797   -1.5980 N   0  0  0  0  0
    4.9683    0.1178   -0.4984 N   0  0  0  0  0
    5.7645   -0.8487   -0.4158 O   0  0  0  0  0
   -3.9823    2.9404   -5.6487 O   0  0  0  0  0
   -1.5628    3.9294   -4.4922 O   0  0  0  0  0
    5.3622    1.2858   -0.7338 O   0  0  0  0  0
   -5.5059   -0.0610   -0.1008 O   0  0  0  0  0
   -0.8296   -0.9040    0.2538 Cl  0  0  0  0  0
  1  7  1  0  0  0
  2 10  1  0  0  0
  3 11  1  0  0  0
  4 12  1  0  0  0
  5  8  1  0  0  0
  6  9  1  0  0  0
  7 13  1  0  0  0
  9 19  1  0  0  0
 10 21  1  0  0  0
 11 26  1  0  0  0
 12 27  1  0  0  0
 13 14  1  0  0  0
 14 19  1  0  0  0
 15 20  1  0  0  0
 16 26  1  0  0  0
 17  8  1  0  0  0
 17 20  1  0  0  0
 18 19  1  0  0  0
 18 20  1  0  0  0
 21 22  1  0  0  0
  1  3  2  0  0  0
  2  4  2  0  0  0
  5 10  2  0  0  0
  6 11  2  0  0  0
  7  9  2  0  0  0
  8 12  2  0  0  0
 13 23  2  0  0  0
 14 24  2  0  0  0
 21 25  2  0  0  0
M  CHG  2  21   1  22  -1
M  END
> <rmsd>
0.59205848

$$$$
ZINC59417525


 23 25  0  0  0  0  0  0  0  0999 V2000
   -5.5264    3.1119    3.2868 C   0  0  0  0  0
   -6.3634    4.0314    2.6548 C   0  0  0  0  0
   -4.9903    2.0455    2.5648 C   0  0  0  0  0
    1.9482    0.8806    0.1945 C   0  0  0  0  0
    3.2128    0.3129    0.0143 C   0  0  0  0  0
   -6.6644    3.8845    1.3006 C   0  0  0  0  0
    2.2142   -1.8007   -0.6293 C   0  0  0  0  0
   -5.2914    1.8986    1.2108 C   0  0  0  0  0
    0.7922    0.1044   -0.0380 C   0  0  0  0  0
    3.3418   -1.0105   -0.3923 C   0  0  0  0  0
    0.9471   -1.2239   -0.4464 C   0  0  0  0  0
   -6.1284    2.8181    0.5787 C   0  0  0  0  0
   -1.3359   -0.4543   -0.1993 C   0  0  0  0  0
   -4.6948    0.7449    0.4886 C   0  0  0  0  0
   -0.5209    0.5304    0.0988 N   0  0  0  0  0
   -2.6918   -0.3620   -0.1628 N   0  0  0  0  0
   -3.3145    0.6972    0.4798 N   0  0  0  0  0
    4.6362   -1.5689   -0.5686 N   0  0  0  0  0
    5.6419   -0.8510   -0.3521 O   0  0  0  0  0
   -5.4342   -0.0855   -0.0337 O   0  0  0  0  0
    4.7373   -2.7642   -0.9354 O   0  0  0  0  0
   -0.6100   -1.9340   -0.6570 S   0  0  0  0  0
   -6.5736    2.6614   -1.2592 Br  0  0  0  0  0
  1  2  1  0  0  0
  3  8  1  0  0  0
  4  9  1  0  0  0
  5 10  1  0  0  0
  6 12  1  0  0  0
  7 11  1  0  0  0
  8 14  1  0  0  0
  9 15  1  0  0  0
 10 18  1  0  0  0
 11 22  1  0  0  0
 12 23  1  0  0  0
 13 16  1  0  0  0
 13 22  1  0  0  0
 14 17  1  0  0  0
 16 17  1  0  0  0
 18 19  1  0  0  0
  1  3  2  0  0  0
  2  6  2  0  0  0
  4  5  2  0  0  0
  7 10  2  0  0  0
  8 12  2  0  0  0
  9 11  2  0  0  0
 13 15  2  0  0  0
 14 20  2  0  0  0
 18 21  2  0  0  0
M  CHG  2  18   1  19  -1
M  END
> <rmsd>
0.541301191

$$$$
ZINC59417525


 23 25  0  0  0  0  0  0  0  0999 V2000
   -5.5202    4.2964    1.3997 C   0  0  0  0  0
   -6.3609    4.1295    2.5001 C   0  0  0  0  0
   -4.9854    3.1810    0.7550 C   0  0  0  0  0
    1.9483    0.8807    0.1946 C   0  0  0  0  0
    3.2129    0.3130    0.0143 C   0  0  0  0  0
   -6.6668    2.8473    2.9560 C   0  0  0  0  0
    2.2142   -1.8006   -0.6292 C   0  0  0  0  0
   -5.2913    1.8987    1.2108 C   0  0  0  0  0
    0.7923    0.1045   -0.0380 C   0  0  0  0  0
    3.3419   -1.0104   -0.3922 C   0  0  0  0  0
    0.9471   -1.2238   -0.4463 C   0  0  0  0  0
   -6.1320    1.7318    2.3113 C   0  0  0  0  0
   -1.3358   -0.4542   -0.1993 C   0  0  0  0  0
   -4.6947    0.7450    0.4886 C   0  0  0  0  0
   -0.5208    0.5305    0.0989 N   0  0  0  0  0
   -2.6917   -0.3619   -0.1627 N   0  0  0  0  0
   -3.3145    0.6973    0.4799 N   0  0  0  0  0
    4.6363   -1.5688   -0.5685 N   0  0  0  0  0
    5.6420   -0.8509   -0.3521 O   0  0  0  0  0
   -5.4341   -0.0854   -0.0336 O   0  0  0  0  0
    4.7374   -2.7641   -0.9353 O   0  0  0  0  0
   -0.6099   -1.9339   -0.6570 S   0  0  0  0  0
   -6.5756    0.0103    2.9746 Br  0  0  0  0  0
  1  2  1  0  0  0
  3  8  1  0  0  0
  4  9  1  0  0  0
  5 10  1  0  0  0
  6 12  1  0  0  0
  7 11  1  0  0  0
  8 14  1  0  0  0
  9 15  1  0  0  0
 10 18  1  0  0  0
 11 22  1  0  0  0
 12 23  1  0  0  0
 13 16  1  0  0  0
 13 22  1  0  0  0
 14 17  1  0  0  0
 16 17  1  0  0  0
 18 19  1  0  0  0
  1  3  2  0  0  0
  2  6  2  0  0  0
  4  5  2  0  0  0
  7 10  2  0  0  0
  8 12  2  0  0  0
  9 11  2  0  0  0
 13 15  2  0  0  0
 14 20  2  0  0  0
 18 21  2  0  0  0
M  CHG  2  18   1  19  -1
M  END
> <rmsd>
0.541301131

$$$$
ZINC59417525


 23 25  0  0  0  0  0  0  0  0999 V2000
   -6.6992    3.8606    1.1225 C   0  0  0  0  0
   -6.4586    4.0942    2.4763 C   0  0  0  0  0
   -6.1160    2.7627    0.4897 C   0  0  0  0  0
    1.9475    0.8806    0.1947 C   0  0  0  0  0
    3.2121    0.3128    0.0144 C   0  0  0  0  0
   -5.6346    3.2301    3.1976 C   0  0  0  0  0
    2.2135   -1.8008   -0.6292 C   0  0  0  0  0
   -5.2921    1.8986    1.2109 C   0  0  0  0  0
    0.7915    0.1043   -0.0379 C   0  0  0  0  0
    3.3411   -1.0106   -0.3922 C   0  0  0  0  0
    0.9464   -1.2240   -0.4462 C   0  0  0  0  0
   -5.0514    2.1322    2.5648 C   0  0  0  0  0
   -1.3366   -0.4544   -0.1992 C   0  0  0  0  0
   -4.6955    0.7448    0.4887 C   0  0  0  0  0
   -0.5216    0.5303    0.0989 N   0  0  0  0  0
   -2.6925   -0.3621   -0.1627 N   0  0  0  0  0
   -3.3152    0.6971    0.4800 N   0  0  0  0  0
    4.6355   -1.5690   -0.5685 N   0  0  0  0  0
    5.6412   -0.8511   -0.3520 O   0  0  0  0  0
   -5.4349   -0.0856   -0.0335 O   0  0  0  0  0
    4.7366   -2.7643   -0.9353 O   0  0  0  0  0
   -0.6107   -1.9340   -0.6569 S   0  0  0  0  0
   -3.9350    0.9909    3.5902 Br  0  0  0  0  0
  1  2  1  0  0  0
  3  8  1  0  0  0
  4  9  1  0  0  0
  5 10  1  0  0  0
  6 12  1  0  0  0
  7 11  1  0  0  0
  8 14  1  0  0  0
  9 15  1  0  0  0
 10 18  1  0  0  0
 11 22  1  0  0  0
 12 23  1  0  0  0
 13 16  1  0  0  0
 13 22  1  0  0  0
 14 17  1  0  0  0
 16 17  1  0  0  0
 18 19  1  0  0  0
  1  3  2  0  0  0
  2  6  2  0  0  0
  4  5  2  0  0  0
  7 10  2  0  0  0
  8 12  2  0  0  0
  9 11  2  0  0  0
 13 15  2  0  0  0
 14 20  2  0  0  0
 18 21  2  0  0  0
M  CHG  2  18   1  19  -1
M  END
> <rmsd>
0.541301191

$$$$
ZINC11027280


 28 31  0  0  0  0  0  0  0  0999 V2000
   -8.7845    7.5655    1.6545 C   0  0  0  0  0
   -8.5573    8.0260    2.9478 C   0  0  0  0  0
    2.0322    0.8688    0.4071 C   0  0  0  0  0
    3.2815    0.2903    0.1500 C   0  0  0  0  0
   -8.1977    6.3779    1.2280 C   0  0  0  0  0
    2.2419   -1.7166   -0.7593 C   0  0  0  0  0
   -7.7425    7.2816    3.7888 C   0  0  0  0  0
    0.8760    0.1425    0.0753 C   0  0  0  0  0
    1.0085   -1.1207   -0.4944 C   0  0  0  0  0
    3.3823   -0.9795   -0.4229 C   0  0  0  0  0
   -7.3919    5.6752    2.1125 C   0  0  0  0  0
   -1.1162   -0.5557   -0.2462 C   0  0  0  0  0
   -4.9170    0.8665    0.3832 C   0  0  0  0  0
   -7.4022    3.5961    0.7527 C   0  0  0  0  0
   -5.5175    4.0554    2.3526 C   0  0  0  0  0
   -6.9434    2.1536    0.9548 C   0  0  0  0  0
   -4.7189    3.1742    1.3919 C   0  0  0  0  0
   -3.4089    0.8162    0.3656 C   0  0  0  0  0
   -0.4508    0.4764    0.2220 N   0  0  0  0  0
   -0.2814   -1.5436   -0.6894 N   0  0  0  0  0
   -7.1899    6.1415    3.3525 N   0  0  0  0  0
   -6.7790    4.4810    1.7410 N   0  0  0  0  0
   -5.4890    2.0304    0.8983 N   0  0  0  0  0
    4.6670   -1.5355   -0.6688 N   0  0  0  0  0
    5.6848   -0.8693   -0.3638 O   0  0  0  0  0
   -5.5642   -0.0940   -0.0404 O   0  0  0  0  0
    4.7460   -2.6766   -1.1833 O   0  0  0  0  0
   -2.8718   -0.7509   -0.3402 S   0  0  0  0  0
  1  2  1  0  0  0
  3  8  1  0  0  0
  4 10  1  0  0  0
  5 11  1  0  0  0
  6  9  1  0  0  0
  7 21  1  0  0  0
  8 19  1  0  0  0
  9 20  1  0  0  0
 10 24  1  0  0  0
 11 22  1  0  0  0
 12 20  1  0  0  0
 12 28  1  0  0  0
 13 23  1  0  0  0
 14 16  1  0  0  0
 14 22  1  0  0  0
 15 17  1  0  0  0
 15 22  1  0  0  0
 16 23  1  0  0  0
 17 23  1  0  0  0
 18 13  1  0  0  0
 18 28  1  0  0  0
 24 25  1  0  0  0
  1  5  2  0  0  0
  2  7  2  0  0  0
  3  4  2  0  0  0
  6 10  2  0  0  0
  8  9  2  0  0  0
 11 21  2  0  0  0
 12 19  2  0  0  0
 13 26  2  0  0  0
 24 27  2  0  0  0
M  CHG  3  21   1  24   1  25  -1
M  END
> <rmsd>
0.511353791

$$$$
ZINC11027280


 28 31  0  0  0  0  0  0  0  0999 V2000
   -7.8577    7.4080    3.6920 C   0  0  0  0  0
   -8.6481    8.0443    2.7397 C   0  0  0  0  0
    2.0318    0.8686    0.4063 C   0  0  0  0  0
    3.2811    0.2899    0.1495 C   0  0  0  0  0
   -7.2209    6.2112    3.3774 C   0  0  0  0  0
    2.2414   -1.7176   -0.7585 C   0  0  0  0  0
   -8.7830    7.4632    1.4868 C   0  0  0  0  0
    0.8756    0.1421    0.0749 C   0  0  0  0  0
    1.0081   -1.1214   -0.4940 C   0  0  0  0  0
    3.3818   -0.9804   -0.4226 C   0  0  0  0  0
   -7.3921    5.6765    2.1083 C   0  0  0  0  0
   -1.1166   -0.5562   -0.2462 C   0  0  0  0  0
   -4.9174    0.8666    0.3823 C   0  0  0  0  0
   -7.4025    3.5966    0.7499 C   0  0  0  0  0
   -5.5178    4.0568    2.3495 C   0  0  0  0  0
   -6.9437    2.1542    0.9530 C   0  0  0  0  0
   -4.7191    3.1750    1.3894 C   0  0  0  0  0
   -3.4093    0.8162    0.3646 C   0  0  0  0  0
   -0.4512    0.4762    0.2213 N   0  0  0  0  0
   -0.2818   -1.5444   -0.6888 N   0  0  0  0  0
   -8.1587    6.3102    1.2104 N   0  0  0  0  0
   -6.7792    4.4821    1.7376 N   0  0  0  0  0
   -5.4893    2.0308    0.8966 N   0  0  0  0  0
    4.6665   -1.5365   -0.6680 N   0  0  0  0  0
    5.6844   -0.8701   -0.3635 O   0  0  0  0  0
   -5.5646   -0.0942   -0.0407 O   0  0  0  0  0
    4.7455   -2.6779   -1.1818 O   0  0  0  0  0
   -2.8722   -0.7514   -0.3400 S   0  0  0  0  0
  1  2  1  0  0  0
  3  8  1  0  0  0
  4 10  1  0  0  0
  5 11  1  0  0  0
  6  9  1  0  0  0
  7 21  1  0  0  0
  8 19  1  0  0  0
  9 20  1  0  0  0
 10 24  1  0  0  0
 11 22  1  0  0  0
 12 20  1  0  0  0
 12 28  1  0  0  0
 13 23  1  0  0  0
 14 16  1  0  0  0
 14 22  1  0  0  0
 15 17  1  0  0  0
 15 22  1  0  0  0
 16 23  1  0  0  0
 17 23  1  0  0  0
 18 13  1  0  0  0
 18 28  1  0  0  0
 24 25  1  0  0  0
  1  5  2  0  0  0
  2  7  2  0  0  0
  3  4  2  0  0  0
  6 10  2  0  0  0
  8  9  2  0  0  0
 11 21  2  0  0  0
 12 19  2  0  0  0
 13 26  2  0  0  0
 24 27  2  0  0  0
M  CHG  3  21   1  24   1  25  -1
M  END
> <rmsd>
0.511422575

$$$$
ZINC90595339


 29 31  0  0  0  0  0  0  0  0999 V2000
    1.5958   -1.6797   -0.0519 C   0  0  0  0  0
   -3.4981    2.2104    2.2222 C   0  0  0  0  0
    2.9637   -1.4297   -0.1605 C   0  0  0  0  0
   -3.9827    0.9933    1.7370 C   0  0  0  0  0
   -4.4464    3.3958    0.3187 C   0  0  0  0  0
    2.5162    0.9373   -0.3462 C   0  0  0  0  0
   -3.7287    3.4047    1.5172 C   0  0  0  0  0
    0.6880   -0.6213   -0.0906 C   0  0  0  0  0
    1.1482    0.6872   -0.2377 C   0  0  0  0  0
    3.4239   -0.1211   -0.3076 C   0  0  0  0  0
   -4.6883    1.0119    0.5515 C   0  0  0  0  0
   -4.9141    2.1811   -0.1386 C   0  0  0  0  0
    0.5575    3.1086   -0.4190 C   0  0  0  0  0
   -0.6672    3.9730   -0.4200 C   0  0  0  0  0
   -5.8273    0.5508   -1.2296 C   0  0  0  0  0
   -0.7714   -0.9190    0.0278 C   0  0  0  0  0
   -4.3272    5.7232    2.3397 C   0  0  0  0  0
   -2.1300    5.2882    1.0877 C   0  0  0  0  0
   -3.2002    4.6928    2.0545 C   0  0  0  0  0
    0.2438    1.7734   -0.2788 N   0  0  0  0  0
   -0.9872    4.4126    0.8341 N   0  0  0  0  0
    4.8167    0.1330   -0.4180 N   0  0  0  0  0
    5.6158   -0.8336   -0.3807 O   0  0  0  0  0
    1.6293    3.6752   -0.5529 O   0  0  0  0  0
   -1.2110    4.1939   -1.4901 O   0  0  0  0  0
    5.2100    1.3172   -0.5498 O   0  0  0  0  0
   -5.2336   -0.0687   -0.0703 O   0  0  0  0  0
   -5.6287    1.9786   -1.2790 O   0  0  0  0  0
   -2.5432    4.4861    3.3283 O   0  0  0  0  0
  1  8  1  0  0  0
  2  7  1  0  0  0
  3 10  1  0  0  0
  4 11  1  0  0  0
  5 12  1  0  0  0
  6  9  1  0  0  0
  9 20  1  0  0  0
 10 22  1  0  0  0
 11 27  1  0  0  0
 12 28  1  0  0  0
 13 14  1  0  0  0
 13 20  1  0  0  0
 14 21  1  0  0  0
 15 27  1  0  0  0
 15 28  1  0  0  0
 16  8  1  0  0  0
 17 19  1  0  0  0
 18 19  1  0  0  0
 18 21  1  0  0  0
 19  7  1  0  0  0
 19 29  1  0  0  0
 22 23  1  0  0  0
  1  3  2  0  0  0
  2  4  2  0  0  0
  5  7  2  0  0  0
  6 10  2  0  0  0
  8  9  2  0  0  0
 11 12  2  0  0  0
 13 24  2  0  0  0
 14 25  2  0  0  0
 22 26  2  0  0  0
M  CHG  2  22   1  23  -1
M  END
> <rmsd>
0.608514905

$$$$
ZINC13000038


 28 30  0  0  0  0  0  0  0  0999 V2000
   -8.4240    0.0943    2.1814 C   0  0  0  0  0
   -8.5848    1.4680    2.3659 C   0  0  0  0  0
    2.2710    1.3641   -0.0209 C   0  0  0  0  0
    3.4579    0.6399   -0.1313 C   0  0  0  0  0
   -7.3889   -0.3876    1.3800 C   0  0  0  0  0
   -7.7043    2.3633    1.7582 C   0  0  0  0  0
    2.1900   -1.4055   -0.3456 C   0  0  0  0  0
    1.0435    0.7036   -0.0728 C   0  0  0  0  0
    3.4175   -0.7448   -0.2936 C   0  0  0  0  0
   -6.5158    0.5077    0.7614 C   0  0  0  0  0
   -6.6604    1.8813    0.9681 C   0  0  0  0  0
    1.0030   -0.6812   -0.2352 C   0  0  0  0  0
   -0.2490    2.8464    0.2050 C   0  0  0  0  0
   -4.9275    0.9626   -0.8703 C   0  0  0  0  0
   -4.6027    2.2135   -0.0647 C   0  0  0  0  0
   -1.8306    4.9947   -2.1324 C   0  0  0  0  0
   -1.7019    3.2571    0.2837 C   0  0  0  0  0
   -3.8840    3.2498   -0.9160 C   0  0  0  0  0
   -1.7606    3.4845   -2.1956 C   0  0  0  0  0
   -0.1415    1.4687    0.0417 N   0  0  0  0  0
    4.6261   -1.4814   -0.4061 N   0  0  0  0  0
   -2.4478    2.9034   -0.9818 N   0  0  0  0  0
    5.7193   -0.8672   -0.3570 O   0  0  0  0  0
    0.6626    3.6639    0.2775 O   0  0  0  0  0
    4.5684   -2.7264   -0.5511 O   0  0  0  0  0
   -5.5317   -0.0250   -0.0288 O   0  0  0  0  0
   -5.8163    2.8081    0.4154 O   0  0  0  0  0
   -0.4955   -1.5386   -0.3028 Cl  0  0  0  0  0
  1  2  1  0  0  0
  3  8  1  0  0  0
  4  9  1  0  0  0
  5 10  1  0  0  0
  6 11  1  0  0  0
  7 12  1  0  0  0
  8 20  1  0  0  0
  9 21  1  0  0  0
 10 26  1  0  0  0
 11 27  1  0  0  0
 12 28  1  0  0  0
 13 20  1  0  0  0
 14 15  1  0  0  0
 14 26  1  0  0  0
 15 18  1  0  0  0
 15 27  1  0  0  0
 16 19  1  0  0  0
 17 13  1  0  0  0
 17 22  1  0  0  0
 18 22  1  0  0  0
 19 22  1  0  0  0
 21 23  1  0  0  0
  1  5  2  0  0  0
  2  6  2  0  0  0
  3  4  2  0  0  0
  7  9  2  0  0  0
  8 12  2  0  0  0
 10 11  2  0  0  0
 13 24  2  0  0  0
 21 25  2  0  0  0
M  CHG  3  21   1  22   1  23  -1
M  END
> <rmsd>
0.561771929

$$$$
ZINC12137251


 29 30  0  0  0  0  0  0  0  0999 V2000
   -2.7346    4.3010   -4.7045 C   0  0  0  0  0
   -3.7676    4.7839   -3.9014 C   0  0  0  0  0
   -2.8030    3.0096   -5.2274 C   0  0  0  0  0
   -4.8693    3.9755   -3.6211 C   0  0  0  0  0
   -3.9046    2.2012   -4.9472 C   0  0  0  0  0
    2.2084    1.3083   -0.1837 C   0  0  0  0  0
    3.4127    0.6085   -0.2572 C   0  0  0  0  0
    2.2072   -1.4809   -0.1231 C   0  0  0  0  0
   -4.9378    2.6842   -4.1440 C   0  0  0  0  0
    1.0027   -0.7811   -0.0496 C   0  0  0  0  0
    1.0033    0.6134   -0.0798 C   0  0  0  0  0
    3.4122   -0.7860   -0.2270 C   0  0  0  0  0
   -2.8899    2.2883    0.5730 C   0  0  0  0  0
   -5.5912    1.1990   -0.2517 C   0  0  0  0  0
   -0.6176    2.5419   -0.5772 C   0  0  0  0  0
   -0.2732   -1.5510    0.0620 C   0  0  0  0  0
   -6.1240    1.8135   -3.8420 C   0  0  0  0  0
   -4.1756    3.1000    0.6334 C   0  0  0  0  0
   -5.4215    2.2413    0.8326 C   0  0  0  0  0
   -5.9362    0.9740   -2.5818 C   0  0  0  0  0
   -0.2105    1.3429   -0.0058 N   0  0  0  0  0
   -1.9323    2.9232   -0.2415 N   0  0  0  0  0
    4.6386   -1.4979   -0.3018 N   0  0  0  0  0
    5.7111   -0.8532   -0.3947 O   0  0  0  0  0
   -2.7360    1.2267    1.1690 O   0  0  0  0  0
   -5.5641   -0.0118   -0.0791 O   0  0  0  0  0
    4.6163   -2.7521   -0.2725 O   0  0  0  0  0
   -5.7695    1.8328   -1.4490 O   0  0  0  0  0
    0.2191    3.5502   -1.6258 S   0  0  0  0  0
  1  2  1  0  0  0
  3  5  1  0  0  0
  4  9  1  0  0  0
  6 11  1  0  0  0
  7 12  1  0  0  0
  8 10  1  0  0  0
 11 21  1  0  0  0
 12 23  1  0  0  0
 13 22  1  0  0  0
 14 28  1  0  0  0
 15 21  1  0  0  0
 15 22  1  0  0  0
 16 10  1  0  0  0
 17  9  1  0  0  0
 17 20  1  0  0  0
 18 13  1  0  0  0
 18 19  1  0  0  0
 19 14  1  0  0  0
 20 28  1  0  0  0
 23 24  1  0  0  0
  1  3  2  0  0  0
  2  4  2  0  0  0
  5  9  2  0  0  0
  6  7  2  0  0  0
  8 12  2  0  0  0
 10 11  2  0  0  0
 13 25  2  0  0  0
 14 26  2  0  0  0
 15 29  2  0  0  0
 23 27  2  0  0  0
M  CHG  2  23   1  24  -1
M  END
> <rmsd>
0.522787154

$$$$
ZINC02791715


 29 31  0  0  0  0  0  0  0  0999 V2000
   -5.3710    1.0984   -0.1225 C   0  0  0  0  0
    2.6721   -1.1789   -0.3119 C   0  0  0  0  0
   -5.1123    2.5026   -0.2173 C   0  0  0  0  0
   -6.0871    3.5301   -0.0412 C   0  0  0  0  0
   -5.5268    4.7850   -0.1831 C   0  0  0  0  0
    1.3842   -0.7130   -0.2094 C   0  0  0  0  0
    3.4736   -0.0286   -0.1842 C   0  0  0  0  0
   -3.8617    3.0137   -0.4897 C   0  0  0  0  0
   -1.3944    2.9806   -0.9780 C   0  0  0  0  0
   -7.5351    3.3366    0.2831 C   0  0  0  0  0
   -6.2746    6.0790   -0.0869 C   0  0  0  0  0
   -8.3540    4.6115    0.0243 C   0  0  0  0  0
   -7.6496    5.8657    0.5863 C   0  0  0  0  0
    0.0914   -1.4199   -0.2623 C   0  0  0  0  0
   -7.8240    8.3284    1.0232 C   0  0  0  0  0
   -9.8748    6.8893    1.1213 C   0  0  0  0  0
   -8.7768    7.3582   -1.0834 C   0  0  0  0  0
   -0.2919    1.9555   -1.1883 C   0  0  0  0  0
    0.3928    1.5863    0.1266 C   0  0  0  0  0
   -8.5266    7.1039    0.4128 C   0  0  0  0  0
   -5.5808   -0.0404   -0.0455 N   0  0  0  0  0
    2.7549    1.0843   -0.0138 N   0  0  0  0  0
    1.4883    0.6355   -0.0338 N   0  0  0  0  0
   -2.6608    2.3982   -0.7226 N   0  0  0  0  0
    4.8656    0.1361   -0.2058 N   0  0  0  0  0
    5.6129   -0.8708   -0.3630 O   0  0  0  0  0
   -1.1395    4.1812   -1.0077 O   0  0  0  0  0
    5.3619    1.2901   -0.0685 O   0  0  0  0  0
   -3.8613    4.7256   -0.5311 S   0  0  0  0  0
  2  7  1  0  0  0
  3  1  1  0  0  0
  3  4  1  0  0  0
  5 29  1  0  0  0
  6 23  1  0  0  0
  7 25  1  0  0  0
  8 24  1  0  0  0
  8 29  1  0  0  0
  9 24  1  0  0  0
 10  4  1  0  0  0
 10 12  1  0  0  0
 11  5  1  0  0  0
 11 13  1  0  0  0
 12 13  1  0  0  0
 13 20  1  0  0  0
 14  6  1  0  0  0
 15 20  1  0  0  0
 16 20  1  0  0  0
 17 20  1  0  0  0
 18  9  1  0  0  0
 18 19  1  0  0  0
 19 23  1  0  0  0
 23 22  1  0  0  0
 25 26  1  0  0  0
  2  6  2  0  0  0
  3  8  2  0  0  0
  4  5  2  0  0  0
  7 22  2  0  0  0
  9 27  2  0  0  0
 25 28  2  0  0  0
  1 21  3  0  0  0
M  CHG  2  25   1  26  -1
M  END
> <rmsd>
0.474017292

$$$$
ZINC02791716


 29 31  0  0  0  0  0  0  0  0999 V2000
   -5.3721    1.0984   -0.1193 C   0  0  0  0  0
    2.6731   -1.1785   -0.3072 C   0  0  0  0  0
   -5.1116    2.5027   -0.2082 C   0  0  0  0  0
   -6.0864    3.5305   -0.0344 C   0  0  0  0  0
   -5.5289    4.7848   -0.1922 C   0  0  0  0  0
    1.3852   -0.7126   -0.2037 C   0  0  0  0  0
    3.4747   -0.0278   -0.1837 C   0  0  0  0  0
   -3.8614    3.0132   -0.4840 C   0  0  0  0  0
   -1.3949    2.9791   -0.9764 C   0  0  0  0  0
   -7.5418    3.3365    0.2535 C   0  0  0  0  0
   -6.2671    6.0801   -0.0511 C   0  0  0  0  0
   -8.2045    4.6324    0.7481 C   0  0  0  0  0
   -7.7939    5.8472   -0.1124 C   0  0  0  0  0
    0.0924   -1.4197   -0.2527 C   0  0  0  0  0
  -10.0600    6.8662    0.2242 C   0  0  0  0  0
   -8.1533    8.2850   -0.5744 C   0  0  0  0  0
   -8.1834    7.4386    1.7854 C   0  0  0  0  0
   -0.2928    1.9536   -1.1861 C   0  0  0  0  0
    0.3942    1.5876    0.1286 C   0  0  0  0  0
   -8.5437    7.1025    0.3283 C   0  0  0  0  0
   -5.5833   -0.0404   -0.0472 N   0  0  0  0  0
    2.7561    1.0854   -0.0148 N   0  0  0  0  0
    1.4896    0.6364   -0.0315 N   0  0  0  0  0
   -2.6610    2.3972   -0.7175 N   0  0  0  0  0
    4.8666    0.1369   -0.2082 N   0  0  0  0  0
    5.6136   -0.8704   -0.3642 O   0  0  0  0  0
   -1.1402    4.1796   -1.0094 O   0  0  0  0  0
    5.3630    1.2912   -0.0745 O   0  0  0  0  0
   -3.8619    4.7248   -0.5326 S   0  0  0  0  0
  2  7  1  0  0  0
  3  1  1  0  0  0
  3  4  1  0  0  0
  5 29  1  0  0  0
  6 23  1  0  0  0
  7 25  1  0  0  0
  8 24  1  0  0  0
  8 29  1  0  0  0
  9 24  1  0  0  0
 10  4  1  0  0  0
 10 12  1  0  0  0
 11  5  1  0  0  0
 11 13  1  0  0  0
 12 13  1  0  0  0
 13 20  1  0  0  0
 14  6  1  0  0  0
 15 20  1  0  0  0
 16 20  1  0  0  0
 17 20  1  0  0  0
 18  9  1  0  0  0
 18 19  1  0  0  0
 19 23  1  0  0  0
 23 22  1  0  0  0
 25 26  1  0  0  0
  2  6  2  0  0  0
  3  8  2  0  0  0
  4  5  2  0  0  0
  7 22  2  0  0  0
  9 27  2  0  0  0
 25 28  2  0  0  0
  1 21  3  0  0  0
M  CHG  2  25   1  26  -1
M  END
> <rmsd>
0.472899824

$$$$
ZINC41524352


 29 31  0  0  0  0  0  0  0  0999 V2000
   -6.0004    1.5660    1.7114 C   0  0  0  0  0
   -5.2146    2.5039    1.0510 C   0  0  0  0  0
    2.3223    1.3756   -0.0835 C   0  0  0  0  0
    3.5064    0.6464   -0.1905 C   0  0  0  0  0
    2.2412   -1.4117   -0.1668 C   0  0  0  0  0
   -6.1767    0.3296    1.1112 C   0  0  0  0  0
   -4.6371    2.1813   -0.1721 C   0  0  0  0  0
    1.0975    0.7112   -0.0181 C   0  0  0  0  0
    3.4659   -0.7473   -0.2321 C   0  0  0  0  0
    1.0570   -0.6824   -0.0598 C   0  0  0  0  0
   -4.8742    0.9173   -0.6878 C   0  0  0  0  0
   -0.1761    2.8555    0.1391 C   0  0  0  0  0
   -1.5981    3.3161    0.2538 C   0  0  0  0  0
   -3.5369   -0.7917   -4.4366 C   0  0  0  0  0
   -5.0154   -1.1284   -4.2404 C   0  0  0  0  0
   -2.8760   -0.9529   -3.0683 C   0  0  0  0  0
   -5.1691   -1.5233   -2.7737 C   0  0  0  0  0
   -4.0187   -0.8154   -2.0741 C   0  0  0  0  0
   -3.7934    3.1781   -0.8881 C   0  0  0  0  0
   -5.6318   -0.0202   -0.0756 N   0  0  0  0  0
   -0.0839    1.4808    0.0893 N   0  0  0  0  0
   -2.3863    2.8800   -0.7886 N   0  0  0  0  0
    4.6718   -1.4888   -0.3413 N   0  0  0  0  0
    5.7626   -0.8711   -0.3989 O   0  0  0  0  0
    0.6796    3.7233    0.0905 O   0  0  0  0  0
   -1.9054    3.9882    1.2252 O   0  0  0  0  0
    4.6142   -2.7419   -0.3769 O   0  0  0  0  0
   -4.3226    0.5618   -1.8906 O   0  0  0  0  0
   -0.4381   -1.5448    0.0202 Cl  0  0  0  0  0
  1  2  1  0  0  0
  3  8  1  0  0  0
  4  9  1  0  0  0
  5 10  1  0  0  0
  6 20  1  0  0  0
  7 11  1  0  0  0
  8 21  1  0  0  0
  9 23  1  0  0  0
 10 29  1  0  0  0
 11 28  1  0  0  0
 12 13  1  0  0  0
 12 21  1  0  0  0
 13 22  1  0  0  0
 14 15  1  0  0  0
 14 16  1  0  0  0
 15 17  1  0  0  0
 16 18  1  0  0  0
 17 18  1  0  0  0
 18 28  1  0  0  0
 19  7  1  0  0  0
 19 22  1  0  0  0
 23 24  1  0  0  0
  1  6  2  0  0  0
  2  7  2  0  0  0
  3  4  2  0  0  0
  5  9  2  0  0  0
  8 10  2  0  0  0
 11 20  2  0  0  0
 12 25  2  0  0  0
 13 26  2  0  0  0
 23 27  2  0  0  0
M  CHG  2  23   1  24  -1
M  END
> <rmsd>
0.533544123

$$$$
ZINC19939297


 29 32  0  0  0  0  0  0  0  0999 V2000
   -3.2375    5.2904   -4.5244 C   0  0  0  0  0
   -2.1121    4.6185   -4.0473 C   0  0  0  0  0
   -4.4997    4.9868   -4.0139 C   0  0  0  0  0
   -2.2488    3.6430   -3.0597 C   0  0  0  0  0
   -4.6363    4.0112   -3.0264 C   0  0  0  0  0
    2.0096    0.9613   -0.1873 C   0  0  0  0  0
    3.2713    0.3635   -0.2576 C   0  0  0  0  0
    2.2752   -1.8431   -0.1267 C   0  0  0  0  0
   -3.5109    3.3394   -2.5492 C   0  0  0  0  0
    0.8565    0.1534   -0.0850 C   0  0  0  0  0
    3.4001   -1.0208   -0.2275 C   0  0  0  0  0
    1.0110   -1.2360   -0.0566 C   0  0  0  0  0
   -1.2666   -0.4236    0.0777 C   0  0  0  0  0
   -3.6525    2.3282   -1.5260 C   0  0  0  0  0
   -4.7179    0.7246   -0.4322 C   0  0  0  0  0
   -3.3525    0.9410    0.1883 C   0  0  0  0  0
   -3.4963    1.4343    1.6242 C   0  0  0  0  0
   -0.4535    0.6032   -0.0075 N   0  0  0  0  0
   -2.7600    2.0297   -0.6316 N   0  0  0  0  0
   -4.8028    1.6125   -1.4643 N   0  0  0  0  0
   -2.6433   -0.3204    0.1714 N   0  0  0  0  0
    4.6916   -1.6084   -0.2989 N   0  0  0  0  0
    5.6949   -0.8607   -0.3882 O   0  0  0  0  0
   -5.5573   -0.0852   -0.0717 O   0  0  0  0  0
    4.7924   -2.8584   -0.2704 O   0  0  0  0  0
   -4.1649    0.5308    2.3583 F   0  0  0  0  0
   -2.2851    1.6252    2.1707 F   0  0  0  0  0
   -4.1700    2.5952    1.6485 F   0  0  0  0  0
   -0.5424   -1.9733    0.0709 S   0  0  0  0  0
  1  2  1  0  0  0
  3  5  1  0  0  0
  4  9  1  0  0  0
  6 10  1  0  0  0
  7 11  1  0  0  0
  8 12  1  0  0  0
  9 14  1  0  0  0
 10 18  1  0  0  0
 11 22  1  0  0  0
 12 29  1  0  0  0
 13 21  1  0  0  0
 13 29  1  0  0  0
 14 20  1  0  0  0
 15 20  1  0  0  0
 16 15  1  0  0  0
 16 17  1  0  0  0
 16 19  1  0  0  0
 16 21  1  0  0  0
 17 26  1  0  0  0
 17 27  1  0  0  0
 17 28  1  0  0  0
 22 23  1  0  0  0
  1  3  2  0  0  0
  2  4  2  0  0  0
  5  9  2  0  0  0
  6  7  2  0  0  0
  8 11  2  0  0  0
 10 12  2  0  0  0
 13 18  2  0  0  0
 14 19  2  0  0  0
 15 24  2  0  0  0
 22 25  2  0  0  0
M  CHG  2  22   1  23  -1
M  END
> <rmsd>
0.503324032

$$$$
ZINC08640098


 29 32  0  0  0  0  0  0  0  0999 V2000
    2.2335    1.3324    0.4304 C   0  0  0  0  0
    3.3950    0.5982    0.1904 C   0  0  0  0  0
    2.0667   -1.2111   -0.7036 C   0  0  0  0  0
   -3.9361   -1.2001    1.5635 C   0  0  0  0  0
   -4.2839   -2.5806    1.3879 C   0  0  0  0  0
    0.9052   -0.4768   -0.4635 C   0  0  0  0  0
    0.9886    0.7948    0.1035 C   0  0  0  0  0
    3.3116   -0.6735   -0.3766 C   0  0  0  0  0
   -3.5646   -3.3906    2.2519 C   0  0  0  0  0
   -2.9617   -1.0530    2.5315 C   0  0  0  0  0
   -4.4699   -0.0109    0.8766 C   0  0  0  0  0
   -3.0007    1.2528    2.1795 C   0  0  0  0  0
   -0.2562    2.8269    0.9108 C   0  0  0  0  0
   -5.3037   -3.1498    0.4451 C   0  0  0  0  0
   -3.6727   -4.8817    2.3305 C   0  0  0  0  0
   -5.1638   -4.6720    0.2886 C   0  0  0  0  0
   -4.9559   -5.3659    1.6407 C   0  0  0  0  0
   -0.4151   -1.0775   -0.8229 C   0  0  0  0  0
   -1.6861    3.3110    1.0216 C   0  0  0  0  0
   -3.9211    1.2128    1.2578 N   0  0  0  0  0
   -2.4841    0.1671    2.8499 N   0  0  0  0  0
   -0.1785    1.5554    0.3552 N   0  0  0  0  0
    4.4942   -1.4206   -0.6206 N   0  0  0  0  0
    5.6038   -0.9184   -0.3189 O   0  0  0  0  0
   -5.3464   -0.1042    0.0248 O   0  0  0  0  0
    0.6717    3.5288    1.3049 O   0  0  0  0  0
    4.3974   -2.5628   -1.1311 O   0  0  0  0  0
   -2.4758   -2.5176    3.2287 S   0  0  0  0  0
   -2.3440    2.8189    2.6268 S   0  0  0  0  0
  1  7  1  0  0  0
  2  8  1  0  0  0
  3  6  1  0  0  0
  4  5  1  0  0  0
  4 11  1  0  0  0
  7 22  1  0  0  0
  8 23  1  0  0  0
  9 28  1  0  0  0
 10 21  1  0  0  0
 10 28  1  0  0  0
 11 20  1  0  0  0
 12 21  1  0  0  0
 12 29  1  0  0  0
 13 22  1  0  0  0
 14  5  1  0  0  0
 14 16  1  0  0  0
 15  9  1  0  0  0
 15 17  1  0  0  0
 16 17  1  0  0  0
 18  6  1  0  0  0
 19 13  1  0  0  0
 19 29  1  0  0  0
 23 24  1  0  0  0
  1  2  2  0  0  0
  3  8  2  0  0  0
  4 10  2  0  0  0
  5  9  2  0  0  0
  6  7  2  0  0  0
 11 25  2  0  0  0
 12 20  2  0  0  0
 13 26  2  0  0  0
 23 27  2  0  0  0
M  CHG  2  23   1  24  -1
M  END
> <rmsd>
0.572969675

$$$$
ZINC08773052


 31 34  0  0  0  0  0  0  0  0999 V2000
   -9.2980    0.2646    0.5525 C   0  0  0  0  0
  -10.0535    0.9154   -0.4233 C   0  0  0  0  0
  -10.1717    2.2339   -2.4848 C   0  0  0  0  0
   -7.9087    0.2630    0.4719 C   0  0  0  0  0
    3.1133    0.4219   -0.1742 C   0  0  0  0  0
   -9.5325    2.8830   -3.5415 C   0  0  0  0  0
    1.8730    1.0517   -0.0538 C   0  0  0  0  0
    2.0496   -1.7465   -0.1211 C   0  0  0  0  0
   -7.3875    2.2306   -2.6464 C   0  0  0  0  0
   -0.5304   -1.7213    0.1056 C   0  0  0  0  0
   -9.4270    1.5739   -1.4939 C   0  0  0  0  0
    0.7771   -1.1382    0.0018 C   0  0  0  0  0
   -8.0141    1.5721   -1.5758 C   0  0  0  0  0
   -7.2695    0.9121   -0.5848 C   0  0  0  0  0
    3.2031   -0.9625   -0.2077 C   0  0  0  0  0
   -8.1432    2.8814   -3.6220 C   0  0  0  0  0
    0.7122    0.2583    0.0332 C   0  0  0  0  0
   -1.5284   -0.7818    0.2106 C   0  0  0  0  0
   -5.1415    3.9173   -7.1073 C   0  0  0  0  0
   -5.8100    0.8683   -0.6006 C   0  0  0  0  0
   -6.1267    3.2048   -6.5499 C   0  0  0  0  0
   -2.9940   -0.9919    0.3352 C   0  0  0  0  0
   -6.2673    2.9837   -5.0803 C   0  0  0  0  0
   -5.1363   -0.1254   -0.1007 N   0  0  0  0  0
   -3.7918    0.0015   -0.2013 N   0  0  0  0  0
    4.4725   -1.5875   -0.3311 N   0  0  0  0  0
    5.4984   -0.8695   -0.4081 O   0  0  0  0  0
   -3.4127   -1.9965    0.9050 O   0  0  0  0  0
    4.5328   -2.8403   -0.3593 O   0  0  0  0  0
   -7.5215    3.5140   -4.6548 O   0  0  0  0  0
   -0.9149    0.8083    0.1860 S   0  0  0  0  0
  1  4  1  0  0  0
  2 11  1  0  0  0
  3 11  1  0  0  0
  5 15  1  0  0  0
  6 16  1  0  0  0
  7 17  1  0  0  0
  8 12  1  0  0  0
  9 13  1  0  0  0
 10 12  1  0  0  0
 13 14  1  0  0  0
 14 20  1  0  0  0
 15 26  1  0  0  0
 16 30  1  0  0  0
 17 31  1  0  0  0
 18 22  1  0  0  0
 18 31  1  0  0  0
 22 25  1  0  0  0
 23 21  1  0  0  0
 23 30  1  0  0  0
 25 24  1  0  0  0
 26 27  1  0  0  0
  1  2  2  0  0  0
  3  6  2  0  0  0
  4 14  2  0  0  0
  5  7  2  0  0  0
  8 15  2  0  0  0
  9 16  2  0  0  0
 10 18  2  0  0  0
 11 13  2  0  0  0
 12 17  2  0  0  0
 19 21  2  0  0  0
 20 24  2  0  0  0
 22 28  2  0  0  0
 26 29  2  0  0  0
M  CHG  2  26   1  27  -1
M  END
> <rmsd>
0.557721257

$$$$
ZINC71933303


 31 33  0  0  0  0  0  0  0  0999 V2000
   -4.9585    1.3874    1.8217 C   0  0  0  0  0
    2.1901    1.4377    0.0394 C   0  0  0  0  0
   -3.9163    2.0509    1.1840 C   0  0  0  0  0
    3.3537    0.6832   -0.1102 C   0  0  0  0  0
   -5.7012   -0.6271   -3.2321 C   0  0  0  0  0
   -4.1211   -2.1810   -2.2698 C   0  0  0  0  0
   -6.4150   -1.6926   -3.7805 C   0  0  0  0  0
   -4.8350   -3.2465   -2.8181 C   0  0  0  0  0
    2.0342   -1.3398   -0.1706 C   0  0  0  0  0
   -5.5719    0.3439    1.1474 C   0  0  0  0  0
    0.9485    0.8034    0.0841 C   0  0  0  0  0
   -3.5247    1.6563   -0.0904 C   0  0  0  0  0
    3.2758   -0.7055   -0.2152 C   0  0  0  0  0
   -4.5542   -0.8713   -2.4767 C   0  0  0  0  0
   -5.9820   -3.0023   -3.5735 C   0  0  0  0  0
    0.8706   -0.5852   -0.0209 C   0  0  0  0  0
   -4.2021    0.6006   -0.6791 C   0  0  0  0  0
   -0.2401    1.6330    0.2417 C   0  0  0  0  0
   -7.9815   -7.3600   -2.9285 C   0  0  0  0  0
   -2.4011    2.3660   -0.7890 C   0  0  0  0  0
   -7.9388   -6.0339   -3.6661 C   0  0  0  0  0
   -6.6453   -5.2794   -3.3994 C   0  0  0  0  0
   -5.2192   -0.0681   -0.0910 N   0  0  0  0  0
   -1.1847    1.5855   -0.7879 N   0  0  0  0  0
    4.4605   -1.4730   -0.3687 N   0  0  0  0  0
    5.5668   -0.8823   -0.4074 O   0  0  0  0  0
   -0.3733    2.3549    1.2435 O   0  0  0  0  0
    4.3687   -2.7210   -0.4613 O   0  0  0  0  0
   -3.8466    0.1830   -1.9354 O   0  0  0  0  0
   -6.6785   -4.0420   -4.1089 O   0  0  0  0  0
   -0.6468   -1.4085    0.0272 Cl  0  0  0  0  0
  1  3  1  0  0  0
  2 11  1  0  0  0
  4 13  1  0  0  0
  5 14  1  0  0  0
  6  8  1  0  0  0
  7 15  1  0  0  0
  9 16  1  0  0  0
 10 23  1  0  0  0
 11 18  1  0  0  0
 12 17  1  0  0  0
 13 25  1  0  0  0
 14 29  1  0  0  0
 15 30  1  0  0  0
 16 31  1  0  0  0
 17 29  1  0  0  0
 18 24  1  0  0  0
 19 21  1  0  0  0
 20 12  1  0  0  0
 20 24  1  0  0  0
 21 22  1  0  0  0
 22 30  1  0  0  0
 25 26  1  0  0  0
  1 10  2  0  0  0
  2  4  2  0  0  0
  3 12  2  0  0  0
  5  7  2  0  0  0
  6 14  2  0  0  0
  8 15  2  0  0  0
  9 13  2  0  0  0
 11 16  2  0  0  0
 17 23  2  0  0  0
 18 27  2  0  0  0
 25 28  2  0  0  0
M  CHG  2  25   1  26  -1
M  END
> <rmsd>
0.560169756

$$$$
ZINC71933303


 31 33  0  0  0  0  0  0  0  0999 V2000
   -4.9586    1.3870    1.8223 C   0  0  0  0  0
    2.1899    1.4377    0.0394 C   0  0  0  0  0
   -3.9164    2.0507    1.1847 C   0  0  0  0  0
    3.3535    0.6832   -0.1105 C   0  0  0  0  0
   -5.7017   -0.6259   -3.2321 C   0  0  0  0  0
   -4.1216   -2.1801   -2.2704 C   0  0  0  0  0
   -6.4157   -1.6912   -3.7808 C   0  0  0  0  0
   -4.8356   -3.2454   -2.8190 C   0  0  0  0  0
    2.0339   -1.3397   -0.1715 C   0  0  0  0  0
   -5.5721    0.3438    1.1476 C   0  0  0  0  0
    0.9483    0.8034    0.0839 C   0  0  0  0  0
   -3.5249    1.6565   -0.0899 C   0  0  0  0  0
    3.2755   -0.7055   -0.2159 C   0  0  0  0  0
   -4.5547   -0.8703   -2.4769 C   0  0  0  0  0
   -5.9826   -3.0010   -3.5742 C   0  0  0  0  0
    0.8703   -0.5852   -0.0215 C   0  0  0  0  0
   -4.2023    0.6010   -0.6788 C   0  0  0  0  0
   -0.2403    1.6329    0.2420 C   0  0  0  0  0
   -8.1778   -4.9026   -7.4432 C   0  0  0  0  0
   -2.4013    2.3664   -0.7884 C   0  0  0  0  0
   -7.4582   -5.0915   -6.1200 C   0  0  0  0  0
   -7.3770   -3.7944   -5.3298 C   0  0  0  0  0
   -5.2195   -0.0678   -0.0909 N   0  0  0  0  0
   -1.1849    1.5858   -0.7876 N   0  0  0  0  0
    4.4602   -1.4730   -0.3698 N   0  0  0  0  0
    5.5665   -0.8824   -0.4084 O   0  0  0  0  0
   -0.3734    2.3546    1.2440 O   0  0  0  0  0
    4.3683   -2.7210   -0.4628 O   0  0  0  0  0
   -3.8470    0.1838   -1.9353 O   0  0  0  0  0
   -6.6792   -4.0404   -4.1098 O   0  0  0  0  0
   -0.6471   -1.4084    0.0265 Cl  0  0  0  0  0
  1  3  1  0  0  0
  2 11  1  0  0  0
  4 13  1  0  0  0
  5 14  1  0  0  0
  6  8  1  0  0  0
  7 15  1  0  0  0
  9 16  1  0  0  0
 10 23  1  0  0  0
 11 18  1  0  0  0
 12 17  1  0  0  0
 13 25  1  0  0  0
 14 29  1  0  0  0
 15 30  1  0  0  0
 16 31  1  0  0  0
 17 29  1  0  0  0
 18 24  1  0  0  0
 19 21  1  0  0  0
 20 12  1  0  0  0
 20 24  1  0  0  0
 21 22  1  0  0  0
 22 30  1  0  0  0
 25 26  1  0  0  0
  1 10  2  0  0  0
  2  4  2  0  0  0
  3 12  2  0  0  0
  5  7  2  0  0  0
  6 14  2  0  0  0
  8 15  2  0  0  0
  9 13  2  0  0  0
 11 16  2  0  0  0
 17 23  2  0  0  0
 18 27  2  0  0  0
 25 28  2  0  0  0
M  CHG  2  25   1  26  -1
M  END
> <rmsd>
0.560048044

$$$$
ZINC12741523


 31 34  0  0  0  0  0  0  0  0999 V2000
  -11.5973    0.1503    0.5131 C   0  0  0  0  0
    2.0790    0.8469    0.4573 C   0  0  0  0  0
  -10.4022    0.0188   -0.1941 C   0  0  0  0  0
    3.3277    0.2802    0.1859 C   0  0  0  0  0
   -9.2798   -0.6716    1.8309 C   0  0  0  0  0
    2.2719   -1.6770   -0.7804 C   0  0  0  0  0
   -5.5501    2.0283    0.9311 C   0  0  0  0  0
  -11.6336   -0.1290    1.8792 C   0  0  0  0  0
  -10.4750   -0.5401    2.5382 C   0  0  0  0  0
    0.9023    0.1493    0.1085 C   0  0  0  0  0
   -9.2435   -0.3922    0.4648 C   0  0  0  0  0
    3.4205   -0.9655   -0.4250 C   0  0  0  0  0
    1.0209   -1.1016   -0.5049 C   0  0  0  0  0
   -4.8537    0.9420    0.4444 C   0  0  0  0  0
   -1.2402   -0.3180   -0.1325 C   0  0  0  0  0
   -6.8914    0.2181    0.0789 C   0  0  0  0  0
   -3.3846    0.8293    0.4189 C   0  0  0  0  0
   -2.6492   -0.2189   -0.0915 C   0  0  0  0  0
   -7.9807   -1.5302   -1.3271 C   0  0  0  0  0
  -12.9246    0.0192    2.6151 C   0  0  0  0  0
  -10.4897   -0.8443    4.0002 C   0  0  0  0  0
   -6.6780   -1.6638   -2.0882 C   0  0  0  0  0
   -0.3986    0.5844    0.3148 N   0  0  0  0  0
   -5.6211   -0.0973   -0.0443 N   0  0  0  0  0
   -7.9785   -0.5316   -0.2843 N   0  0  0  0  0
    4.6994   -1.5239   -0.6927 N   0  0  0  0  0
    5.7242   -0.8765   -0.3701 O   0  0  0  0  0
   -8.9268   -2.2559   -1.6492 O   0  0  0  0  0
    4.7675   -2.6486   -1.2439 O   0  0  0  0  0
   -7.2349    1.7491    0.7736 S   0  0  0  0  0
   -0.5549   -1.7263   -0.8204 S   0  0  0  0  0
  1  8  1  0  0  0
  2 10  1  0  0  0
  3 11  1  0  0  0
  4 12  1  0  0  0
  5  9  1  0  0  0
  6 13  1  0  0  0
  7 30  1  0  0  0
 10 23  1  0  0  0
 11 25  1  0  0  0
 12 26  1  0  0  0
 13 31  1  0  0  0
 14 17  1  0  0  0
 14 24  1  0  0  0
 15 18  1  0  0  0
 15 31  1  0  0  0
 16 25  1  0  0  0
 16 30  1  0  0  0
 19 25  1  0  0  0
 20  8  1  0  0  0
 21  9  1  0  0  0
 22 19  1  0  0  0
 26 27  1  0  0  0
  1  3  2  0  0  0
  2  4  2  0  0  0
  5 11  2  0  0  0
  6 12  2  0  0  0
  7 14  2  0  0  0
  8  9  2  0  0  0
 10 13  2  0  0  0
 15 23  2  0  0  0
 16 24  2  0  0  0
 17 18  2  0  0  0
 19 28  2  0  0  0
 26 29  2  0  0  0
M  CHG  2  26   1  27  -1
M  END
> <rmsd>
0.508938313

$$$$
ZINC12741523


 31 34  0  0  0  0  0  0  0  0999 V2000
  -10.4738   -0.5397    2.5393 C   0  0  0  0  0
    2.0788    0.8469    0.4578 C   0  0  0  0  0
   -9.2792   -0.6715    1.8313 C   0  0  0  0  0
    3.3275    0.2802    0.1863 C   0  0  0  0  0
  -10.4027    0.0191   -0.1930 C   0  0  0  0  0
    2.2717   -1.6769   -0.7800 C   0  0  0  0  0
   -5.5503    2.0284    0.9315 C   0  0  0  0  0
  -11.6329   -0.1285    1.8811 C   0  0  0  0  0
  -11.5973    0.1508    0.5150 C   0  0  0  0  0
    0.9021    0.1493    0.1089 C   0  0  0  0  0
   -9.2437   -0.3922    0.4652 C   0  0  0  0  0
    3.4204   -0.9655   -0.4246 C   0  0  0  0  0
    1.0207   -1.1016   -0.5045 C   0  0  0  0  0
   -4.8538    0.9420    0.4448 C   0  0  0  0  0
   -1.2404   -0.3180   -0.1321 C   0  0  0  0  0
   -6.8915    0.2181    0.0793 C   0  0  0  0  0
   -3.3848    0.8293    0.4193 C   0  0  0  0  0
   -2.6494   -0.2188   -0.0910 C   0  0  0  0  0
   -7.9809   -1.5302   -1.3267 C   0  0  0  0  0
  -12.8999    0.0051    2.6602 C   0  0  0  0  0
  -12.8257    0.5921   -0.2109 C   0  0  0  0  0
   -6.6782   -1.6638   -2.0878 C   0  0  0  0  0
   -0.3988    0.5844    0.3152 N   0  0  0  0  0
   -5.6213   -0.0973   -0.0439 N   0  0  0  0  0
   -7.9787   -0.5316   -0.2839 N   0  0  0  0  0
    4.6992   -1.5239   -0.6923 N   0  0  0  0  0
    5.7240   -0.8765   -0.3697 O   0  0  0  0  0
   -8.9270   -2.2559   -1.6488 O   0  0  0  0  0
    4.7673   -2.6486   -1.2435 O   0  0  0  0  0
   -7.2350    1.7491    0.7740 S   0  0  0  0  0
   -0.5551   -1.7263   -0.8200 S   0  0  0  0  0
  1  8  1  0  0  0
  2 10  1  0  0  0
  3 11  1  0  0  0
  4 12  1  0  0  0
  5  9  1  0  0  0
  6 13  1  0  0  0
  7 30  1  0  0  0
 10 23  1  0  0  0
 11 25  1  0  0  0
 12 26  1  0  0  0
 13 31  1  0  0  0
 14 17  1  0  0  0
 14 24  1  0  0  0
 15 18  1  0  0  0
 15 31  1  0  0  0
 16 25  1  0  0  0
 16 30  1  0  0  0
 19 25  1  0  0  0
 20  8  1  0  0  0
 21  9  1  0  0  0
 22 19  1  0  0  0
 26 27  1  0  0  0
  1  3  2  0  0  0
  2  4  2  0  0  0
  5 11  2  0  0  0
  6 12  2  0  0  0
  7 14  2  0  0  0
  8  9  2  0  0  0
 10 13  2  0  0  0
 15 23  2  0  0  0
 16 24  2  0  0  0
 17 18  2  0  0  0
 19 28  2  0  0  0
 26 29  2  0  0  0
M  CHG  2  26   1  27  -1
M  END
> <rmsd>
0.508938372

$$$$
ZINC12741523


 31 34  0  0  0  0  0  0  0  0999 V2000
   -8.1061   -4.2543   -0.8448 C   0  0  0  0  0
    2.0790    0.8470    0.4573 C   0  0  0  0  0
   -8.2963   -2.9973   -0.2709 C   0  0  0  0  0
    3.3276    0.2801    0.1860 C   0  0  0  0  0
   -7.0672   -1.9825   -2.0866 C   0  0  0  0  0
    2.2716   -1.6771   -0.7799 C   0  0  0  0  0
   -5.5501    2.0293    0.9307 C   0  0  0  0  0
   -7.3965   -4.3755   -2.0395 C   0  0  0  0  0
   -6.8771   -3.2396   -2.6605 C   0  0  0  0  0
    0.9022    0.1494    0.1086 C   0  0  0  0  0
   -7.7769   -1.8614   -0.8918 C   0  0  0  0  0
    3.4203   -0.9657   -0.4246 C   0  0  0  0  0
    1.0207   -1.1016   -0.5045 C   0  0  0  0  0
   -4.8537    0.9428    0.4442 C   0  0  0  0  0
   -1.2403   -0.3177   -0.1324 C   0  0  0  0  0
   -6.8914    0.2190    0.0788 C   0  0  0  0  0
   -3.3846    0.8300    0.4187 C   0  0  0  0  0
   -2.6494   -0.2184   -0.0913 C   0  0  0  0  0
   -9.3515   -0.0946   -0.1850 C   0  0  0  0  0
   -7.2055   -5.7319   -2.6346 C   0  0  0  0  0
   -6.1136   -3.3449   -3.9397 C   0  0  0  0  0
  -10.2716   -0.6265   -1.2641 C   0  0  0  0  0
   -0.3987    0.5847    0.3147 N   0  0  0  0  0
   -5.6212   -0.0965   -0.0442 N   0  0  0  0  0
   -7.9787   -0.5307   -0.2842 N   0  0  0  0  0
    4.6992   -1.5243   -0.6923 N   0  0  0  0  0
    5.7240   -0.8769   -0.3697 O   0  0  0  0  0
   -9.8241    0.6593    0.6716 O   0  0  0  0  0
    4.7672   -2.6491   -1.2432 O   0  0  0  0  0
   -7.2348    1.7502    0.7732 S   0  0  0  0  0
   -0.5552   -1.7262   -0.8199 S   0  0  0  0  0
  1  8  1  0  0  0
  2 10  1  0  0  0
  3 11  1  0  0  0
  4 12  1  0  0  0
  5  9  1  0  0  0
  6 13  1  0  0  0
  7 30  1  0  0  0
 10 23  1  0  0  0
 11 25  1  0  0  0
 12 26  1  0  0  0
 13 31  1  0  0  0
 14 17  1  0  0  0
 14 24  1  0  0  0
 15 18  1  0  0  0
 15 31  1  0  0  0
 16 25  1  0  0  0
 16 30  1  0  0  0
 19 25  1  0  0  0
 20  8  1  0  0  0
 21  9  1  0  0  0
 22 19  1  0  0  0
 26 27  1  0  0  0
  1  3  2  0  0  0
  2  4  2  0  0  0
  5 11  2  0  0  0
  6 12  2  0  0  0
  7 14  2  0  0  0
  8  9  2  0  0  0
 10 13  2  0  0  0
 15 23  2  0  0  0
 16 24  2  0  0  0
 17 18  2  0  0  0
 19 28  2  0  0  0
 26 29  2  0  0  0
M  CHG  2  26   1  27  -1
M  END
> <rmsd>
0.509099007

$$$$
ZINC12741523


 31 34  0  0  0  0  0  0  0  0999 V2000
   -6.8758   -3.2370   -2.6625 C   0  0  0  0  0
    2.0791    0.8463    0.4585 C   0  0  0  0  0
   -7.0668   -1.9807   -2.0873 C   0  0  0  0  0
    3.3277    0.2796    0.1867 C   0  0  0  0  0
   -8.2957   -2.9982   -0.2730 C   0  0  0  0  0
    2.2717   -1.6769   -0.7807 C   0  0  0  0  0
   -5.5500    2.0280    0.9330 C   0  0  0  0  0
   -7.3946   -4.3740   -2.0429 C   0  0  0  0  0
   -8.1046   -4.2545   -0.8481 C   0  0  0  0  0
    0.9023    0.1490    0.1092 C   0  0  0  0  0
   -7.7768   -1.8614   -0.8926 C   0  0  0  0  0
    3.4204   -0.9657   -0.4249 C   0  0  0  0  0
    1.0208   -1.1016   -0.5048 C   0  0  0  0  0
   -4.8536    0.9419    0.4456 C   0  0  0  0  0
   -1.2402   -0.3181   -0.1320 C   0  0  0  0  0
   -6.8914    0.2183    0.0797 C   0  0  0  0  0
   -3.3845    0.8291    0.4200 C   0  0  0  0  0
   -2.6493   -0.2188   -0.0909 C   0  0  0  0  0
   -9.3514   -0.0951   -0.1843 C   0  0  0  0  0
   -7.1774   -5.7081   -2.6777 C   0  0  0  0  0
   -8.6696   -5.4575   -0.1671 C   0  0  0  0  0
  -10.2715   -0.6262   -1.2639 C   0  0  0  0  0
   -0.3986    0.5840    0.3158 N   0  0  0  0  0
   -5.6211   -0.0971   -0.0436 N   0  0  0  0  0
   -7.9786   -0.5311   -0.2839 N   0  0  0  0  0
    4.6993   -1.5240   -0.6930 N   0  0  0  0  0
    5.7241   -0.8769   -0.3699 O   0  0  0  0  0
   -9.8241    0.6581    0.6729 O   0  0  0  0  0
    4.7673   -2.6485   -1.2448 O   0  0  0  0  0
   -7.2348    1.7490    0.7753 S   0  0  0  0  0
   -0.5550   -1.7260   -0.8207 S   0  0  0  0  0
  1  8  1  0  0  0
  2 10  1  0  0  0
  3 11  1  0  0  0
  4 12  1  0  0  0
  5  9  1  0  0  0
  6 13  1  0  0  0
  7 30  1  0  0  0
 10 23  1  0  0  0
 11 25  1  0  0  0
 12 26  1  0  0  0
 13 31  1  0  0  0
 14 17  1  0  0  0
 14 24  1  0  0  0
 15 18  1  0  0  0
 15 31  1  0  0  0
 16 25  1  0  0  0
 16 30  1  0  0  0
 19 25  1  0  0  0
 20  8  1  0  0  0
 21  9  1  0  0  0
 22 19  1  0  0  0
 26 27  1  0  0  0
  1  3  2  0  0  0
  2  4  2  0  0  0
  5 11  2  0  0  0
  6 12  2  0  0  0
  7 14  2  0  0  0
  8  9  2  0  0  0
 10 13  2  0  0  0
 15 23  2  0  0  0
 16 24  2  0  0  0
 17 18  2  0  0  0
 19 28  2  0  0  0
 26 29  2  0  0  0
M  CHG  2  26   1  27  -1
M  END
> <rmsd>
0.509030223

$$$$
ZINC12741523


 31 34  0  0  0  0  0  0  0  0999 V2000
   -8.5427   -3.5153   -2.5142 C   0  0  0  0  0
    2.0790    0.8467    0.4577 C   0  0  0  0  0
   -8.6436   -2.6298   -1.4411 C   0  0  0  0  0
    3.3276    0.2800    0.1861 C   0  0  0  0  0
   -6.9983   -1.1924   -2.4726 C   0  0  0  0  0
    2.2717   -1.6768   -0.7807 C   0  0  0  0  0
   -5.5501    2.0285    0.9318 C   0  0  0  0  0
   -7.6696   -3.2394   -3.5664 C   0  0  0  0  0
   -6.8974   -2.0779   -3.5457 C   0  0  0  0  0
    0.9022    0.1493    0.1086 C   0  0  0  0  0
   -7.8714   -1.4684   -1.4203 C   0  0  0  0  0
    3.4204   -0.9655   -0.4251 C   0  0  0  0  0
    1.0208   -1.1014   -0.5051 C   0  0  0  0  0
   -4.8537    0.9422    0.4448 C   0  0  0  0  0
   -1.2403   -0.3178   -0.1325 C   0  0  0  0  0
   -6.8914    0.2185    0.0791 C   0  0  0  0  0
   -3.3846    0.8295    0.4192 C   0  0  0  0  0
   -2.6493   -0.2186   -0.0914 C   0  0  0  0  0
   -9.2860   -0.4355    0.3211 C   0  0  0  0  0
   -7.5787   -4.2025   -4.7041 C   0  0  0  0  0
   -5.9556   -1.7618   -4.6608 C   0  0  0  0  0
   -9.2842   -0.1011    1.7984 C   0  0  0  0  0
   -0.3987    0.5844    0.3151 N   0  0  0  0  0
   -5.6212   -0.0969   -0.0442 N   0  0  0  0  0
   -7.9786   -0.5310   -0.2843 N   0  0  0  0  0
    4.6992   -1.5239   -0.6931 N   0  0  0  0  0
    5.7241   -0.8767   -0.3702 O   0  0  0  0  0
  -10.3719   -0.6071   -0.2414 O   0  0  0  0  0
    4.7673   -2.6485   -1.2446 O   0  0  0  0  0
   -7.2348    1.7494    0.7742 S   0  0  0  0  0
   -0.5551   -1.7260   -0.8208 S   0  0  0  0  0
  1  8  1  0  0  0
  2 10  1  0  0  0
  3 11  1  0  0  0
  4 12  1  0  0  0
  5  9  1  0  0  0
  6 13  1  0  0  0
  7 30  1  0  0  0
 10 23  1  0  0  0
 11 25  1  0  0  0
 12 26  1  0  0  0
 13 31  1  0  0  0
 14 17  1  0  0  0
 14 24  1  0  0  0
 15 18  1  0  0  0
 15 31  1  0  0  0
 16 25  1  0  0  0
 16 30  1  0  0  0
 19 25  1  0  0  0
 20  8  1  0  0  0
 21  9  1  0  0  0
 22 19  1  0  0  0
 26 27  1  0  0  0
  1  3  2  0  0  0
  2  4  2  0  0  0
  5 11  2  0  0  0
  6 12  2  0  0  0
  7 14  2  0  0  0
  8  9  2  0  0  0
 10 13  2  0  0  0
 15 23  2  0  0  0
 16 24  2  0  0  0
 17 18  2  0  0  0
 19 28  2  0  0  0
 26 29  2  0  0  0
M  CHG  2  26   1  27  -1
M  END
> <rmsd>
0.508968174

$$$$
ZINC12741523


 31 34  0  0  0  0  0  0  0  0999 V2000
   -6.8958   -2.0799   -3.5437 C   0  0  0  0  0
    2.0793    0.8469    0.4570 C   0  0  0  0  0
   -6.9976   -1.1937   -2.4714 C   0  0  0  0  0
    3.3279    0.2800    0.1859 C   0  0  0  0  0
   -8.6429   -2.6311   -1.4397 C   0  0  0  0  0
    2.2719   -1.6775   -0.7794 C   0  0  0  0  0
   -5.5498    2.0293    0.9301 C   0  0  0  0  0
   -7.6676   -3.2416   -3.5642 C   0  0  0  0  0
   -8.5411   -3.5173   -2.5121 C   0  0  0  0  0
    0.9025    0.1493    0.1085 C   0  0  0  0  0
   -7.8711   -1.4694   -1.4193 C   0  0  0  0  0
    3.4207   -0.9660   -0.4244 C   0  0  0  0  0
    1.0211   -1.1019   -0.5042 C   0  0  0  0  0
   -4.8534    0.9426    0.4439 C   0  0  0  0  0
   -1.2400   -0.3180   -0.1323 C   0  0  0  0  0
   -6.8911    0.2187    0.0787 C   0  0  0  0  0
   -3.3843    0.8298    0.4185 C   0  0  0  0  0
   -2.6490   -0.2187   -0.0913 C   0  0  0  0  0
   -9.2857   -0.4351    0.3213 C   0  0  0  0  0
   -7.5416   -4.1751   -4.7231 C   0  0  0  0  0
   -9.3774   -4.7545   -2.5126 C   0  0  0  0  0
   -9.2839   -0.0995    1.7983 C   0  0  0  0  0
   -0.3984    0.5846    0.3146 N   0  0  0  0  0
   -5.6209   -0.0968   -0.0442 N   0  0  0  0  0
   -7.9784   -0.5311   -0.2841 N   0  0  0  0  0
    4.6995   -1.5246   -0.6918 N   0  0  0  0  0
    5.7243   -0.8772   -0.3695 O   0  0  0  0  0
  -10.3716   -0.6071   -0.2412 O   0  0  0  0  0
    4.7675   -2.6496   -1.2424 O   0  0  0  0  0
   -7.2345    1.7501    0.7727 S   0  0  0  0  0
   -0.5548   -1.7267   -0.8195 S   0  0  0  0  0
  1  8  1  0  0  0
  2 10  1  0  0  0
  3 11  1  0  0  0
  4 12  1  0  0  0
  5  9  1  0  0  0
  6 13  1  0  0  0
  7 30  1  0  0  0
 10 23  1  0  0  0
 11 25  1  0  0  0
 12 26  1  0  0  0
 13 31  1  0  0  0
 14 17  1  0  0  0
 14 24  1  0  0  0
 15 18  1  0  0  0
 15 31  1  0  0  0
 16 25  1  0  0  0
 16 30  1  0  0  0
 19 25  1  0  0  0
 20  8  1  0  0  0
 21  9  1  0  0  0
 22 19  1  0  0  0
 26 27  1  0  0  0
  1  3  2  0  0  0
  2  4  2  0  0  0
  5 11  2  0  0  0
  6 12  2  0  0  0
  7 14  2  0  0  0
  8  9  2  0  0  0
 10 13  2  0  0  0
 15 23  2  0  0  0
 16 24  2  0  0  0
 17 18  2  0  0  0
 19 28  2  0  0  0
 26 29  2  0  0  0
M  CHG  2  26   1  27  -1
M  END
> <rmsd>
0.50903666

$$$$
ZINC13002245


 31 34  0  0  0  0  0  0  0  0999 V2000
  -11.3789    0.7041    0.7395 C   0  0  0  0  0
  -11.6454   -0.0939    1.8520 C   0  0  0  0  0
    2.0790    0.8470    0.4573 C   0  0  0  0  0
  -10.1779    0.5550    0.0458 C   0  0  0  0  0
    3.3277    0.2803    0.1858 C   0  0  0  0  0
    2.2719   -1.6768   -0.7804 C   0  0  0  0  0
   -5.5501    2.0285    0.9311 C   0  0  0  0  0
  -10.7109   -1.0410    2.2709 C   0  0  0  0  0
   -9.5100   -1.1901    1.5773 C   0  0  0  0  0
    0.9023    0.1495    0.1084 C   0  0  0  0  0
   -9.2435   -0.3920    0.4647 C   0  0  0  0  0
    3.4206   -0.9653   -0.4250 C   0  0  0  0  0
    1.0209   -1.1014   -0.5049 C   0  0  0  0  0
   -4.8536    0.9421    0.4444 C   0  0  0  0  0
   -1.2402   -0.3179   -0.1326 C   0  0  0  0  0
   -6.8913    0.2183    0.0788 C   0  0  0  0  0
   -3.3846    0.8295    0.4188 C   0  0  0  0  0
   -2.6492   -0.2187   -0.0915 C   0  0  0  0  0
   -7.9807   -1.5300   -1.3272 C   0  0  0  0  0
  -11.0209   -1.8817    3.4663 C   0  0  0  0  0
   -8.5105   -2.2077    2.0308 C   0  0  0  0  0
   -6.6780   -1.6636   -2.0883 C   0  0  0  0  0
   -0.3986    0.5845    0.3147 N   0  0  0  0  0
   -5.6211   -0.0971   -0.0443 N   0  0  0  0  0
   -7.9785   -0.5314   -0.2844 N   0  0  0  0  0
    4.6994   -1.5237   -0.6928 N   0  0  0  0  0
    5.7242   -0.8764   -0.3701 O   0  0  0  0  0
   -8.9268   -2.2557   -1.6492 O   0  0  0  0  0
    4.7675   -2.6485   -1.2440 O   0  0  0  0  0
   -7.2348    1.7493    0.7735 S   0  0  0  0  0
   -0.5549   -1.7261   -0.8205 S   0  0  0  0  0
  1  4  1  0  0  0
  2  8  1  0  0  0
  3 10  1  0  0  0
  5 12  1  0  0  0
  6 13  1  0  0  0
  7 30  1  0  0  0
  9 11  1  0  0  0
 10 23  1  0  0  0
 11 25  1  0  0  0
 12 26  1  0  0  0
 13 31  1  0  0  0
 14 17  1  0  0  0
 14 24  1  0  0  0
 15 18  1  0  0  0
 15 31  1  0  0  0
 16 25  1  0  0  0
 16 30  1  0  0  0
 19 25  1  0  0  0
 20  8  1  0  0  0
 21  9  1  0  0  0
 22 19  1  0  0  0
 26 27  1  0  0  0
  1  2  2  0  0  0
  3  5  2  0  0  0
  4 11  2  0  0  0
  6 12  2  0  0  0
  7 14  2  0  0  0
  8  9  2  0  0  0
 10 13  2  0  0  0
 15 23  2  0  0  0
 16 24  2  0  0  0
 17 18  2  0  0  0
 19 28  2  0  0  0
 26 29  2  0  0  0
M  CHG  2  26   1  27  -1
M  END
> <rmsd>
0.508938313

$$$$
ZINC13002245


 31 34  0  0  0  0  0  0  0  0999 V2000
   -6.8623   -3.2055   -2.6797 C   0  0  0  0  0
   -7.3736   -4.3548   -2.0771 C   0  0  0  0  0
    2.0791    0.8466    0.4580 C   0  0  0  0  0
   -7.0638   -1.9588   -2.0873 C   0  0  0  0  0
    3.3277    0.2799    0.1864 C   0  0  0  0  0
    2.2718   -1.6769   -0.7804 C   0  0  0  0  0
   -5.5500    2.0283    0.9322 C   0  0  0  0  0
   -8.0865   -4.2576   -0.8822 C   0  0  0  0  0
   -8.2880   -3.0109   -0.2897 C   0  0  0  0  0
    0.9023    0.1491    0.1090 C   0  0  0  0  0
   -7.7767   -1.8616   -0.8923 C   0  0  0  0  0
    3.4205   -0.9656   -0.4248 C   0  0  0  0  0
    1.0209   -1.1016   -0.5047 C   0  0  0  0  0
   -4.8536    0.9420    0.4451 C   0  0  0  0  0
   -1.2402   -0.3180   -0.1321 C   0  0  0  0  0
   -6.8913    0.2184    0.0794 C   0  0  0  0  0
   -3.3845    0.8293    0.4196 C   0  0  0  0  0
   -2.6492   -0.2187   -0.0911 C   0  0  0  0  0
   -9.3514   -0.0952   -0.1845 C   0  0  0  0  0
   -8.6244   -5.5040   -0.2587 C   0  0  0  0  0
   -9.0538   -2.9118    0.9925 C   0  0  0  0  0
  -10.2715   -0.6265   -1.2640 C   0  0  0  0  0
   -0.3986    0.5843    0.3154 N   0  0  0  0  0
   -5.6211   -0.0970   -0.0438 N   0  0  0  0  0
   -7.9786   -0.5312   -0.2840 N   0  0  0  0  0
    4.6993   -1.5240   -0.6927 N   0  0  0  0  0
    5.7241   -0.8768   -0.3699 O   0  0  0  0  0
   -9.8241    0.6582    0.6724 O   0  0  0  0  0
    4.7674   -2.6486   -1.2442 O   0  0  0  0  0
   -7.2348    1.7492    0.7746 S   0  0  0  0  0
   -0.5550   -1.7261   -0.8205 S   0  0  0  0  0
  1  4  1  0  0  0
  2  8  1  0  0  0
  3 10  1  0  0  0
  5 12  1  0  0  0
  6 13  1  0  0  0
  7 30  1  0  0  0
  9 11  1  0  0  0
 10 23  1  0  0  0
 11 25  1  0  0  0
 12 26  1  0  0  0
 13 31  1  0  0  0
 14 17  1  0  0  0
 14 24  1  0  0  0
 15 18  1  0  0  0
 15 31  1  0  0  0
 16 25  1  0  0  0
 16 30  1  0  0  0
 19 25  1  0  0  0
 20  8  1  0  0  0
 21  9  1  0  0  0
 22 19  1  0  0  0
 26 27  1  0  0  0
  1  2  2  0  0  0
  3  5  2  0  0  0
  4 11  2  0  0  0
  6 12  2  0  0  0
  7 14  2  0  0  0
  8  9  2  0  0  0
 10 13  2  0  0  0
 15 23  2  0  0  0
 16 24  2  0  0  0
 17 18  2  0  0  0
 19 28  2  0  0  0
 26 29  2  0  0  0
M  CHG  2  26   1  27  -1
M  END
> <rmsd>
0.508968115

$$$$
ZINC13002245


 31 34  0  0  0  0  0  0  0  0999 V2000
  -11.2651    0.2280    1.3764 C   0  0  0  0  0
  -11.9072    0.9862    0.3975 C   0  0  0  0  0
    2.0795    0.8460    0.4583 C   0  0  0  0  0
   -9.9804   -0.2642    1.1465 C   0  0  0  0  0
    3.3280    0.2794    0.1864 C   0  0  0  0  0
    2.2720   -1.6768   -0.7815 C   0  0  0  0  0
   -5.5495    2.0280    0.9331 C   0  0  0  0  0
  -11.2645    1.2521   -0.8117 C   0  0  0  0  0
   -9.9798    0.7599   -1.0418 C   0  0  0  0  0
    0.9027    0.1489    0.1089 C   0  0  0  0  0
   -9.3377    0.0017   -0.0627 C   0  0  0  0  0
    3.4208   -0.9658   -0.4256 C   0  0  0  0  0
    1.0211   -1.1015   -0.5055 C   0  0  0  0  0
   -4.8532    0.9420    0.4455 C   0  0  0  0  0
   -1.2399   -0.3180   -0.1325 C   0  0  0  0  0
   -6.8910    0.2187    0.0794 C   0  0  0  0  0
   -3.3841    0.8292    0.4198 C   0  0  0  0  0
   -2.6489   -0.2187   -0.0914 C   0  0  0  0  0
   -7.9150   -1.8691   -0.8223 C   0  0  0  0  0
  -11.9753    2.0654   -1.8436 C   0  0  0  0  0
   -9.2946    1.0478   -2.3408 C   0  0  0  0  0
   -6.5155   -2.4039   -1.0452 C   0  0  0  0  0
   -0.3982    0.5840    0.3155 N   0  0  0  0  0
   -5.6207   -0.0968   -0.0441 N   0  0  0  0  0
   -7.9783   -0.5306   -0.2844 N   0  0  0  0  0
    4.6995   -1.5241   -0.6938 N   0  0  0  0  0
    5.7244   -0.8771   -0.3706 O   0  0  0  0  0
   -8.8737   -2.5901   -1.1164 O   0  0  0  0  0
    4.7675   -2.6484   -1.2459 O   0  0  0  0  0
   -7.2343    1.7491    0.7754 S   0  0  0  0  0
   -0.5548   -1.7258   -0.8216 S   0  0  0  0  0
  1  4  1  0  0  0
  2  8  1  0  0  0
  3 10  1  0  0  0
  5 12  1  0  0  0
  6 13  1  0  0  0
  7 30  1  0  0  0
  9 11  1  0  0  0
 10 23  1  0  0  0
 11 25  1  0  0  0
 12 26  1  0  0  0
 13 31  1  0  0  0
 14 17  1  0  0  0
 14 24  1  0  0  0
 15 18  1  0  0  0
 15 31  1  0  0  0
 16 25  1  0  0  0
 16 30  1  0  0  0
 19 25  1  0  0  0
 20  8  1  0  0  0
 21  9  1  0  0  0
 22 19  1  0  0  0
 26 27  1  0  0  0
  1  2  2  0  0  0
  3  5  2  0  0  0
  4 11  2  0  0  0
  6 12  2  0  0  0
  7 14  2  0  0  0
  8  9  2  0  0  0
 10 13  2  0  0  0
 15 23  2  0  0  0
 16 24  2  0  0  0
 17 18  2  0  0  0
 19 28  2  0  0  0
 26 29  2  0  0  0
M  CHG  2  26   1  27  -1
M  END
> <rmsd>
0.509060144

$$$$
ZINC13002245


 31 34  0  0  0  0  0  0  0  0999 V2000
   -6.8938   -4.1048   -0.7242 C   0  0  0  0  0
   -7.3712   -4.3887   -2.0036 C   0  0  0  0  0
    2.0791    0.8468    0.4573 C   0  0  0  0  0
   -7.0965   -2.8416   -0.1685 C   0  0  0  0  0
    3.3277    0.2801    0.1858 C   0  0  0  0  0
    2.2719   -1.6770   -0.7804 C   0  0  0  0  0
   -5.5501    2.0283    0.9311 C   0  0  0  0  0
   -8.0513   -3.4094   -2.7274 C   0  0  0  0  0
   -8.2539   -2.1461   -2.1719 C   0  0  0  0  0
    0.9024    0.1492    0.1084 C   0  0  0  0  0
   -7.7765   -1.8622   -0.8924 C   0  0  0  0  0
    3.4206   -0.9656   -0.4250 C   0  0  0  0  0
    1.0210   -1.1017   -0.5049 C   0  0  0  0  0
   -4.8536    0.9419    0.4444 C   0  0  0  0  0
   -1.2401   -0.3181   -0.1326 C   0  0  0  0  0
   -6.8913    0.2181    0.0788 C   0  0  0  0  0
   -3.3845    0.8293    0.4188 C   0  0  0  0  0
   -2.6492   -0.2189   -0.0915 C   0  0  0  0  0
   -9.3513   -0.0957   -0.1851 C   0  0  0  0  0
   -8.5509   -3.7395   -4.0961 C   0  0  0  0  0
   -8.9843   -1.0986   -2.9527 C   0  0  0  0  0
  -10.3662   -1.2085   -0.0242 C   0  0  0  0  0
   -0.3986    0.5843    0.3147 N   0  0  0  0  0
   -5.6210   -0.0973   -0.0443 N   0  0  0  0  0
   -7.9785   -0.5316   -0.2844 N   0  0  0  0  0
    4.6995   -1.5239   -0.6928 N   0  0  0  0  0
    5.7242   -0.8766   -0.3701 O   0  0  0  0  0
   -9.7584    1.0696   -0.2283 O   0  0  0  0  0
    4.7676   -2.6487   -1.2440 O   0  0  0  0  0
   -7.2348    1.7491    0.7735 S   0  0  0  0  0
   -0.5548   -1.7263   -0.8205 S   0  0  0  0  0
  1  4  1  0  0  0
  2  8  1  0  0  0
  3 10  1  0  0  0
  5 12  1  0  0  0
  6 13  1  0  0  0
  7 30  1  0  0  0
  9 11  1  0  0  0
 10 23  1  0  0  0
 11 25  1  0  0  0
 12 26  1  0  0  0
 13 31  1  0  0  0
 14 17  1  0  0  0
 14 24  1  0  0  0
 15 18  1  0  0  0
 15 31  1  0  0  0
 16 25  1  0  0  0
 16 30  1  0  0  0
 19 25  1  0  0  0
 20  8  1  0  0  0
 21  9  1  0  0  0
 22 19  1  0  0  0
 26 27  1  0  0  0
  1  2  2  0  0  0
  3  5  2  0  0  0
  4 11  2  0  0  0
  6 12  2  0  0  0
  7 14  2  0  0  0
  8  9  2  0  0  0
 10 13  2  0  0  0
 15 23  2  0  0  0
 16 24  2  0  0  0
 17 18  2  0  0  0
 19 28  2  0  0  0
 26 29  2  0  0  0
M  CHG  2  26   1  27  -1
M  END
> <rmsd>
0.508938253

$$$$
ZINC13002245


 31 34  0  0  0  0  0  0  0  0999 V2000
   -8.0929   -3.3510   -2.7682 C   0  0  0  0  0
   -7.4193   -4.3600   -2.0801 C   0  0  0  0  0
    2.0791    0.8468    0.4581 C   0  0  0  0  0
   -8.2716   -2.1013   -2.1748 C   0  0  0  0  0
    3.3277    0.2801    0.1863 C   0  0  0  0  0
    2.2717   -1.6764   -0.7811 C   0  0  0  0  0
   -5.5500    2.0285    0.9325 C   0  0  0  0  0
   -6.9245   -4.1195   -0.7983 C   0  0  0  0  0
   -7.1032   -2.8699   -0.2048 C   0  0  0  0  0
    0.9023    0.1495    0.1088 C   0  0  0  0  0
   -7.7767   -1.8609   -0.8930 C   0  0  0  0  0
    3.4205   -0.9652   -0.4253 C   0  0  0  0  0
    1.0209   -1.1011   -0.5052 C   0  0  0  0  0
   -4.8536    0.9424    0.4452 C   0  0  0  0  0
   -1.2402   -0.3176   -0.1324 C   0  0  0  0  0
   -6.8913    0.2188    0.0793 C   0  0  0  0  0
   -3.3845    0.8296    0.4196 C   0  0  0  0  0
   -2.6492   -0.2183   -0.0913 C   0  0  0  0  0
   -9.3514   -0.0946   -0.1847 C   0  0  0  0  0
   -6.2082   -5.2181   -0.0829 C   0  0  0  0  0
   -6.5703   -2.6169    1.1709 C   0  0  0  0  0
  -10.3664   -1.2075   -0.0245 C   0  0  0  0  0
   -0.3986    0.5845    0.3154 N   0  0  0  0  0
   -5.6211   -0.0966   -0.0440 N   0  0  0  0  0
   -7.9786   -0.5306   -0.2843 N   0  0  0  0  0
    4.6993   -1.5235   -0.6934 N   0  0  0  0  0
    5.7241   -0.8764   -0.3703 O   0  0  0  0  0
   -9.7584    1.0707   -0.2274 O   0  0  0  0  0
    4.7674   -2.6480   -1.2452 O   0  0  0  0  0
   -7.2347    1.7495    0.7749 S   0  0  0  0  0
   -0.5550   -1.7255   -0.8211 S   0  0  0  0  0
  1  4  1  0  0  0
  2  8  1  0  0  0
  3 10  1  0  0  0
  5 12  1  0  0  0
  6 13  1  0  0  0
  7 30  1  0  0  0
  9 11  1  0  0  0
 10 23  1  0  0  0
 11 25  1  0  0  0
 12 26  1  0  0  0
 13 31  1  0  0  0
 14 17  1  0  0  0
 14 24  1  0  0  0
 15 18  1  0  0  0
 15 31  1  0  0  0
 16 25  1  0  0  0
 16 30  1  0  0  0
 19 25  1  0  0  0
 20  8  1  0  0  0
 21  9  1  0  0  0
 22 19  1  0  0  0
 26 27  1  0  0  0
  1  2  2  0  0  0
  3  5  2  0  0  0
  4 11  2  0  0  0
  6 12  2  0  0  0
  7 14  2  0  0  0
  8  9  2  0  0  0
 10 13  2  0  0  0
 15 23  2  0  0  0
 16 24  2  0  0  0
 17 18  2  0  0  0
 19 28  2  0  0  0
 26 29  2  0  0  0
M  CHG  2  26   1  27  -1
M  END
> <rmsd>
0.509030342

$$$$
ZINC12909514


 31 34  0  0  0  0  0  0  0  0999 V2000
  -11.9068    1.0059    0.3559 C   0  0  0  0  0
  -11.2457    1.2597   -0.8459 C   0  0  0  0  0
  -11.2835    0.2495    1.3485 C   0  0  0  0  0
    2.0790    0.8459    0.4582 C   0  0  0  0  0
    3.3276    0.2793    0.1865 C   0  0  0  0  0
    2.2716   -1.6772   -0.7809 C   0  0  0  0  0
   -5.5501    2.0276    0.9327 C   0  0  0  0  0
   -9.9615    0.7572   -1.0550 C   0  0  0  0  0
   -9.9992   -0.2530    1.1393 C   0  0  0  0  0
    0.9022    0.1486    0.1090 C   0  0  0  0  0
   -9.3381    0.0008   -0.0625 C   0  0  0  0  0
    3.4204   -0.9661   -0.4251 C   0  0  0  0  0
    1.0207   -1.1020   -0.5050 C   0  0  0  0  0
   -4.8537    0.9415    0.4454 C   0  0  0  0  0
   -1.2403   -0.3184   -0.1322 C   0  0  0  0  0
   -6.8914    0.2180    0.0795 C   0  0  0  0  0
   -3.3846    0.8288    0.4198 C   0  0  0  0  0
   -2.6493   -0.2192   -0.0911 C   0  0  0  0  0
   -7.9154   -1.8701   -0.8216 C   0  0  0  0  0
   -9.2794    1.0459   -2.3531 C   0  0  0  0  0
   -9.3581   -1.0599    2.2216 C   0  0  0  0  0
   -9.2587   -2.5221   -1.0752 C   0  0  0  0  0
   -0.3987    0.5837    0.3156 N   0  0  0  0  0
   -5.6212   -0.0974   -0.0439 N   0  0  0  0  0
   -7.9787   -0.5315   -0.2841 N   0  0  0  0  0
    4.6992   -1.5244   -0.6932 N   0  0  0  0  0
    5.7240   -0.8773   -0.3702 O   0  0  0  0  0
   -6.8922   -2.5136   -1.0756 O   0  0  0  0  0
    4.7672   -2.6488   -1.2450 O   0  0  0  0  0
   -7.2348    1.7486    0.7751 S   0  0  0  0  0
   -0.5551   -1.7264   -0.8210 S   0  0  0  0  0
  1  3  1  0  0  0
  2  8  1  0  0  0
  4 10  1  0  0  0
  5 12  1  0  0  0
  6 13  1  0  0  0
  7 30  1  0  0  0
  9 11  1  0  0  0
 10 23  1  0  0  0
 11 25  1  0  0  0
 12 26  1  0  0  0
 13 31  1  0  0  0
 14 17  1  0  0  0
 14 24  1  0  0  0
 15 18  1  0  0  0
 15 31  1  0  0  0
 16 25  1  0  0  0
 16 30  1  0  0  0
 19 25  1  0  0  0
 20  8  1  0  0  0
 21  9  1  0  0  0
 22 19  1  0  0  0
 26 27  1  0  0  0
  1  2  2  0  0  0
  3  9  2  0  0  0
  4  5  2  0  0  0
  6 12  2  0  0  0
  7 14  2  0  0  0
  8 11  2  0  0  0
 10 13  2  0  0  0
 15 23  2  0  0  0
 16 24  2  0  0  0
 17 18  2  0  0  0
 19 28  2  0  0  0
 26 29  2  0  0  0
M  CHG  2  26   1  27  -1
M  END
> <rmsd>
0.509030282

$$$$
ZINC12909514


 31 34  0  0  0  0  0  0  0  0999 V2000
   -7.3962   -4.3738   -2.0437 C   0  0  0  0  0
   -7.5100   -4.2509   -0.6590 C   0  0  0  0  0
   -7.4725   -3.2404   -2.8532 C   0  0  0  0  0
    2.0792    0.8456    0.4587 C   0  0  0  0  0
    3.3278    0.2790    0.1868 C   0  0  0  0  0
    2.2717   -1.6772   -0.7811 C   0  0  0  0  0
   -5.5498    2.0277    0.9336 C   0  0  0  0  0
   -7.7003   -2.9945   -0.0837 C   0  0  0  0  0
   -7.6628   -1.9840   -2.2778 C   0  0  0  0  0
    0.9024    0.1485    0.1093 C   0  0  0  0  0
   -7.7767   -1.8611   -0.8931 C   0  0  0  0  0
    3.4205   -0.9662   -0.4251 C   0  0  0  0  0
    1.0209   -1.1019   -0.5051 C   0  0  0  0  0
   -4.8534    0.9416    0.4460 C   0  0  0  0  0
   -1.2401   -0.3184   -0.1321 C   0  0  0  0  0
   -6.8912    0.2183    0.0798 C   0  0  0  0  0
   -3.3844    0.8288    0.4203 C   0  0  0  0  0
   -2.6492   -0.2190   -0.0909 C   0  0  0  0  0
   -9.3513   -0.0949   -0.1843 C   0  0  0  0  0
   -7.8190   -2.8954    1.4028 C   0  0  0  0  0
   -7.7407   -0.7887   -3.1715 C   0  0  0  0  0
  -10.3745   -1.0738   -0.7221 C   0  0  0  0  0
   -0.3985    0.5836    0.3160 N   0  0  0  0  0
   -5.6210   -0.0972   -0.0436 N   0  0  0  0  0
   -7.9785   -0.5310   -0.2840 N   0  0  0  0  0
    4.6993   -1.5245   -0.6933 N   0  0  0  0  0
    5.7241   -0.8775   -0.3701 O   0  0  0  0  0
   -9.7509    0.9782    0.2785 O   0  0  0  0  0
    4.7673   -2.6488   -1.2455 O   0  0  0  0  0
   -7.2345    1.7487    0.7758 S   0  0  0  0  0
   -0.5550   -1.7262   -0.8212 S   0  0  0  0  0
  1  3  1  0  0  0
  2  8  1  0  0  0
  4 10  1  0  0  0
  5 12  1  0  0  0
  6 13  1  0  0  0
  7 30  1  0  0  0
  9 11  1  0  0  0
 10 23  1  0  0  0
 11 25  1  0  0  0
 12 26  1  0  0  0
 13 31  1  0  0  0
 14 17  1  0  0  0
 14 24  1  0  0  0
 15 18  1  0  0  0
 15 31  1  0  0  0
 16 25  1  0  0  0
 16 30  1  0  0  0
 19 25  1  0  0  0
 20  8  1  0  0  0
 21  9  1  0  0  0
 22 19  1  0  0  0
 26 27  1  0  0  0
  1  2  2  0  0  0
  3  9  2  0  0  0
  4  5  2  0  0  0
  6 12  2  0  0  0
  7 14  2  0  0  0
  8 11  2  0  0  0
 10 13  2  0  0  0
 15 23  2  0  0  0
 16 24  2  0  0  0
 17 18  2  0  0  0
 19 28  2  0  0  0
 26 29  2  0  0  0
M  CHG  2  26   1  27  -1
M  END
> <rmsd>
0.509060144

$$$$
ZINC12760157


 31 34  0  0  0  0  0  0  0  0999 V2000
    2.0790    0.8466    0.4580 C   0  0  0  0  0
   -6.9980   -1.1913   -2.4725 C   0  0  0  0  0
   -8.6439   -2.6290   -1.4424 C   0  0  0  0  0
    3.3276    0.2800    0.1862 C   0  0  0  0  0
   -6.8970   -2.0761   -3.5461 C   0  0  0  0  0
   -8.5430   -3.5138   -2.5160 C   0  0  0  0  0
    2.2717   -1.6765   -0.7811 C   0  0  0  0  0
   -5.5500    2.0283    0.9325 C   0  0  0  0  0
    0.9023    0.1493    0.1088 C   0  0  0  0  0
   -7.8714   -1.4678   -1.4206 C   0  0  0  0  0
    3.4204   -0.9654   -0.4253 C   0  0  0  0  0
   -7.6696   -3.2373   -3.5679 C   0  0  0  0  0
    1.0208   -1.1013   -0.5053 C   0  0  0  0  0
   -4.8536    0.9422    0.4452 C   0  0  0  0  0
   -1.2403   -0.3177   -0.1325 C   0  0  0  0  0
   -6.8914    0.2187    0.0792 C   0  0  0  0  0
   -3.3846    0.8294    0.4196 C   0  0  0  0  0
   -2.6493   -0.2185   -0.0914 C   0  0  0  0  0
   -9.2859   -0.4354    0.3212 C   0  0  0  0  0
   -9.2841   -0.1015    1.7985 C   0  0  0  0  0
   -8.3892   -5.2685   -4.5739 C   0  0  0  0  0
   -0.3986    0.5844    0.3153 N   0  0  0  0  0
   -5.6211   -0.0967   -0.0441 N   0  0  0  0  0
   -7.9786   -0.5308   -0.2844 N   0  0  0  0  0
    4.6992   -1.5237   -0.6934 N   0  0  0  0  0
    5.7241   -0.8766   -0.3704 O   0  0  0  0  0
  -10.3719   -0.6068   -0.2415 O   0  0  0  0  0
    4.7673   -2.6481   -1.2452 O   0  0  0  0  0
   -7.5708   -4.1006   -4.6154 O   0  0  0  0  0
   -7.2348    1.7493    0.7748 S   0  0  0  0  0
   -0.5551   -1.7257   -0.8212 S   0  0  0  0  0
  1  9  1  0  0  0
  2 10  1  0  0  0
  3  6  1  0  0  0
  4 11  1  0  0  0
  5 12  1  0  0  0
  7 13  1  0  0  0
  8 30  1  0  0  0
  9 22  1  0  0  0
 10 24  1  0  0  0
 11 25  1  0  0  0
 12 29  1  0  0  0
 13 31  1  0  0  0
 14 17  1  0  0  0
 14 23  1  0  0  0
 15 18  1  0  0  0
 15 31  1  0  0  0
 16 24  1  0  0  0
 16 30  1  0  0  0
 19 24  1  0  0  0
 20 19  1  0  0  0
 21 29  1  0  0  0
 25 26  1  0  0  0
  1  4  2  0  0  0
  2  5  2  0  0  0
  3 10  2  0  0  0
  6 12  2  0  0  0
  7 11  2  0  0  0
  8 14  2  0  0  0
  9 13  2  0  0  0
 15 22  2  0  0  0
 16 23  2  0  0  0
 17 18  2  0  0  0
 19 27  2  0  0  0
 25 28  2  0  0  0
M  CHG  2  25   1  26  -1
M  END
> <rmsd>
0.509030163

$$$$
ZINC12760157


 31 34  0  0  0  0  0  0  0  0999 V2000
    2.0793    0.8459    0.4583 C   0  0  0  0  0
   -7.0668   -1.9802   -2.0882 C   0  0  0  0  0
   -8.2965   -2.9975   -0.2744 C   0  0  0  0  0
    3.3279    0.2793    0.1864 C   0  0  0  0  0
   -6.8766   -3.2365   -2.6639 C   0  0  0  0  0
   -8.1064   -4.2537   -0.8500 C   0  0  0  0  0
    2.2718   -1.6769   -0.7815 C   0  0  0  0  0
   -5.5497    2.0279    0.9332 C   0  0  0  0  0
    0.9025    0.1488    0.1089 C   0  0  0  0  0
   -7.7767   -1.8608   -0.8935 C   0  0  0  0  0
    3.4206   -0.9659   -0.4255 C   0  0  0  0  0
   -7.3965   -4.3732   -2.0448 C   0  0  0  0  0
    1.0209   -1.1016   -0.5055 C   0  0  0  0  0
   -4.8534    0.9419    0.4455 C   0  0  0  0  0
   -1.2401   -0.3181   -0.1325 C   0  0  0  0  0
   -6.8912    0.2186    0.0794 C   0  0  0  0  0
   -3.3843    0.8291    0.4199 C   0  0  0  0  0
   -2.6491   -0.2187   -0.0913 C   0  0  0  0  0
   -9.3513   -0.0947   -0.1847 C   0  0  0  0  0
  -10.3745   -1.0735   -0.7225 C   0  0  0  0  0
   -7.7688   -6.7189   -1.9210 C   0  0  0  0  0
   -0.3984    0.5839    0.3156 N   0  0  0  0  0
   -5.6209   -0.0969   -0.0440 N   0  0  0  0  0
   -7.9785   -0.5307   -0.2844 N   0  0  0  0  0
    4.6994   -1.5242   -0.6938 N   0  0  0  0  0
    5.7242   -0.8772   -0.3706 O   0  0  0  0  0
   -9.7509    0.9785    0.2781 O   0  0  0  0  0
    4.7673   -2.6485   -1.2459 O   0  0  0  0  0
   -7.2108   -5.5988   -2.6066 O   0  0  0  0  0
   -7.2345    1.7490    0.7754 S   0  0  0  0  0
   -0.5550   -1.7259   -0.8216 S   0  0  0  0  0
  1  9  1  0  0  0
  2 10  1  0  0  0
  3  6  1  0  0  0
  4 11  1  0  0  0
  5 12  1  0  0  0
  7 13  1  0  0  0
  8 30  1  0  0  0
  9 22  1  0  0  0
 10 24  1  0  0  0
 11 25  1  0  0  0
 12 29  1  0  0  0
 13 31  1  0  0  0
 14 17  1  0  0  0
 14 23  1  0  0  0
 15 18  1  0  0  0
 15 31  1  0  0  0
 16 24  1  0  0  0
 16 30  1  0  0  0
 19 24  1  0  0  0
 20 19  1  0  0  0
 21 29  1  0  0  0
 25 26  1  0  0  0
  1  4  2  0  0  0
  2  5  2  0  0  0
  3 10  2  0  0  0
  6 12  2  0  0  0
  7 11  2  0  0  0
  8 14  2  0  0  0
  9 13  2  0  0  0
 15 22  2  0  0  0
 16 23  2  0  0  0
 17 18  2  0  0  0
 19 27  2  0  0  0
 25 28  2  0  0  0
M  CHG  2  25   1  26  -1
M  END
> <rmsd>
0.509060025

$$$$
ZINC20220421


 31 33  0  0  0  0  0  0  0  0999 V2000
   -0.6808    6.4792   -1.7123 C   0  0  0  0  0
   -1.5376    6.8032   -0.6605 C   0  0  0  0  0
   -0.6438    5.1748   -2.2053 C   0  0  0  0  0
   -2.3574    5.8229   -0.1015 C   0  0  0  0  0
   -1.4636    4.1944   -1.6463 C   0  0  0  0  0
    2.0477    0.9769    0.0722 C   0  0  0  0  0
    3.2970    0.3693   -0.0829 C   0  0  0  0  0
    2.2508   -1.8023   -0.3446 C   0  0  0  0  0
   -2.3204    4.5185   -0.5943 C   0  0  0  0  0
    0.8755    0.1918    0.0198 C   0  0  0  0  0
    3.3950   -1.0024   -0.2885 C   0  0  0  0  0
    0.9992   -1.1854   -0.1880 C   0  0  0  0  0
   -1.2621   -0.3527    0.0537 C   0  0  0  0  0
   -3.1925    3.4753    0.0008 C   0  0  0  0  0
   -4.7848    0.8230   -0.3096 C   0  0  0  0  0
   -6.2021    1.6872   -1.9987 C   0  0  0  0  0
   -3.4229    0.9795    0.3807 C   0  0  0  0  0
   -3.7124    1.1103    1.8814 C   0  0  0  0  0
   -0.4256    0.6535    0.1561 N   0  0  0  0  0
   -2.6404   -0.2332    0.1461 N   0  0  0  0  0
   -2.7198    2.1752   -0.1012 N   0  0  0  0  0
    4.6743   -1.6006   -0.4427 N   0  0  0  0  0
    5.6951   -0.8734   -0.3897 O   0  0  0  0  0
   -4.2599    3.8113    0.5052 O   0  0  0  0  0
   -5.5615   -0.0966   -0.0712 O   0  0  0  0  0
    4.7474   -2.8392   -0.6272 O   0  0  0  0  0
   -4.9849    1.7885   -1.2528 O   0  0  0  0  0
   -4.3532    0.0189    2.3608 F   0  0  0  0  0
   -2.5686    1.2506    2.5901 F   0  0  0  0  0
   -4.4925    2.1779    2.1582 F   0  0  0  0  0
   -0.5718   -1.8956   -0.2087 S   0  0  0  0  0
  1  2  1  0  0  0
  3  5  1  0  0  0
  4  9  1  0  0  0
  6 10  1  0  0  0
  7 11  1  0  0  0
  8 12  1  0  0  0
  9 14  1  0  0  0
 10 19  1  0  0  0
 11 22  1  0  0  0
 12 31  1  0  0  0
 13 20  1  0  0  0
 13 31  1  0  0  0
 14 21  1  0  0  0
 15 27  1  0  0  0
 16 27  1  0  0  0
 17 15  1  0  0  0
 17 18  1  0  0  0
 17 20  1  0  0  0
 17 21  1  0  0  0
 18 28  1  0  0  0
 18 29  1  0  0  0
 18 30  1  0  0  0
 22 23  1  0  0  0
  1  3  2  0  0  0
  2  4  2  0  0  0
  5  9  2  0  0  0
  6  7  2  0  0  0
  8 11  2  0  0  0
 10 12  2  0  0  0
 13 19  2  0  0  0
 14 24  2  0  0  0
 15 25  2  0  0  0
 22 26  2  0  0  0
M  CHG  2  22   1  23  -1
M  END
> <rmsd>
0.495398968

$$$$
ZINC12361706


 32 35  0  0  0  0  0  0  0  0999 V2000
   -3.3115    0.5617    6.0721 C   0  0  0  0  0
   -3.3947    3.3019    1.5162 C   0  0  0  0  0
    1.4537   -1.3558   -0.6592 C   0  0  0  0  0
    2.8409   -1.2334   -0.5809 C   0  0  0  0  0
   -4.4313    3.3974    0.5878 C   0  0  0  0  0
   -3.3448    1.5072    5.0168 C   0  0  0  0  0
   -3.5011    0.8916    1.3870 C   0  0  0  0  0
    2.5908    0.9189    0.4877 C   0  0  0  0  0
   -2.2081   -0.2387    5.8740 C   0  0  0  0  0
   -2.9295    2.0490    1.9158 C   0  0  0  0  0
    0.6349   -0.3407   -0.1642 C   0  0  0  0  0
    3.4095   -0.0961   -0.0074 C   0  0  0  0  0
   -5.0029    2.2401    0.0591 C   0  0  0  0  0
   -4.5378    0.9872    0.4586 C   0  0  0  0  0
    1.2036    0.7966    0.4093 C   0  0  0  0  0
   -2.2660    1.2540    4.1869 C   0  0  0  0  0
   -0.3643   -0.3422    4.1770 C   0  0  0  0  0
    0.3623    0.7200    3.3677 C   0  0  0  0  0
   -1.7999    1.9451    2.9279 C   0  0  0  0  0
   -0.8467   -0.5030   -0.2637 C   0  0  0  0  0
   -6.4314    3.6631   -1.2020 C   0  0  0  0  0
   -4.5554   -1.3904    0.4090 C   0  0  0  0  0
   -1.5841    0.1982    4.7408 N   0  0  0  0  0
   -0.5750    1.2660    2.3389 N   0  0  0  0  0
    4.8219    0.0276    0.0728 N   0  0  0  0  0
    5.5398   -0.8976   -0.3781 O   0  0  0  0  0
    5.3134    1.0587    0.5919 O   0  0  0  0  0
    1.0710    3.1075    1.5991 O   0  0  0  0  0
   -0.7955    2.4273    0.0494 O   0  0  0  0  0
   -6.0147    2.3461   -0.8467 O   0  0  0  0  0
   -5.0879   -0.1500   -0.0513 O   0  0  0  0  0
    0.1982    2.0989    1.0450 S   0  0  0  0  0
  1  6  1  0  0  0
  2 10  1  0  0  0
  3 11  1  0  0  0
  4 12  1  0  0  0
  5 13  1  0  0  0
  7 14  1  0  0  0
  8 15  1  0  0  0
  9 23  1  0  0  0
 12 25  1  0  0  0
 13 30  1  0  0  0
 14 31  1  0  0  0
 16 23  1  0  0  0
 17 18  1  0  0  0
 17 23  1  0  0  0
 18 24  1  0  0  0
 19 10  1  0  0  0
 19 16  1  0  0  0
 19 24  1  0  0  0
 20 11  1  0  0  0
 21 30  1  0  0  0
 22 31  1  0  0  0
 25 26  1  0  0  0
 32 15  1  0  0  0
 32 24  1  0  0  0
  1  9  2  0  0  0
  2  5  2  0  0  0
  3  4  2  0  0  0
  6 16  2  0  0  0
  7 10  2  0  0  0
  8 12  2  0  0  0
 11 15  2  0  0  0
 13 14  2  0  0  0
 25 27  2  0  0  0
 32 28  2  0  0  0
 32 29  2  0  0  0
M  CHG  2  25   1  26  -1
M  END
> <rmsd>
0.627277851

$$$$
ZINC12801411


 31 34  0  0  0  0  0  0  0  0999 V2000
    2.0791    0.8460    0.4582 C   0  0  0  0  0
   -9.2764   -0.6730    1.8310 C   0  0  0  0  0
    3.3277    0.2794    0.1864 C   0  0  0  0  0
  -10.4698   -0.5426    2.5412 C   0  0  0  0  0
    2.2717   -1.6771   -0.7810 C   0  0  0  0  0
  -11.5975    0.1490    0.5196 C   0  0  0  0  0
   -5.5500    2.0278    0.9327 C   0  0  0  0  0
    0.9023    0.1487    0.1090 C   0  0  0  0  0
   -9.2435   -0.3922    0.4650 C   0  0  0  0  0
    3.4204   -0.9660   -0.4252 C   0  0  0  0  0
  -11.6303   -0.1317    1.8856 C   0  0  0  0  0
  -10.4041    0.0187   -0.1906 C   0  0  0  0  0
    1.0208   -1.1018   -0.5051 C   0  0  0  0  0
   -4.8536    0.9416    0.4454 C   0  0  0  0  0
   -1.2402   -0.3183   -0.1323 C   0  0  0  0  0
   -6.8914    0.2181    0.0794 C   0  0  0  0  0
   -3.3845    0.8289    0.4197 C   0  0  0  0  0
   -2.6493   -0.2191   -0.0912 C   0  0  0  0  0
   -7.9809   -1.5293   -1.3275 C   0  0  0  0  0
   -6.6782   -1.6626   -2.0888 C   0  0  0  0  0
   -0.3986    0.5838    0.3155 N   0  0  0  0  0
   -5.6211   -0.0973   -0.0439 N   0  0  0  0  0
   -7.9786   -0.5313   -0.2842 N   0  0  0  0  0
    4.6993   -1.5243   -0.6932 N   0  0  0  0  0
    5.7241   -0.8772   -0.3702 O   0  0  0  0  0
   -8.9270   -2.2548   -1.6500 O   0  0  0  0  0
    4.7673   -2.6487   -1.2451 O   0  0  0  0  0
  -12.7761   -0.0064    2.5677 F   0  0  0  0  0
  -10.3843    0.2916   -1.5031 F   0  0  0  0  0
   -7.2348    1.7487    0.7750 S   0  0  0  0  0
   -0.5550   -1.7263   -0.8210 S   0  0  0  0  0
  1  8  1  0  0  0
  2  9  1  0  0  0
  3 10  1  0  0  0
  4 11  1  0  0  0
  5 13  1  0  0  0
  6 12  1  0  0  0
  7 30  1  0  0  0
  8 21  1  0  0  0
  9 23  1  0  0  0
 10 24  1  0  0  0
 11 28  1  0  0  0
 12 29  1  0  0  0
 13 31  1  0  0  0
 14 17  1  0  0  0
 14 22  1  0  0  0
 15 18  1  0  0  0
 15 31  1  0  0  0
 16 23  1  0  0  0
 16 30  1  0  0  0
 19 23  1  0  0  0
 20 19  1  0  0  0
 24 25  1  0  0  0
  1  3  2  0  0  0
  2  4  2  0  0  0
  5 10  2  0  0  0
  6 11  2  0  0  0
  7 14  2  0  0  0
  8 13  2  0  0  0
  9 12  2  0  0  0
 15 21  2  0  0  0
 16 22  2  0  0  0
 17 18  2  0  0  0
 19 26  2  0  0  0
 24 27  2  0  0  0
M  CHG  2  24   1  25  -1
M  END
> <rmsd>
0.509030223

$$$$
ZINC12801411


 31 34  0  0  0  0  0  0  0  0999 V2000
    2.0792    0.8468    0.4572 C   0  0  0  0  0
  -10.4007    0.0189   -0.1966 C   0  0  0  0  0
    3.3278    0.2801    0.1858 C   0  0  0  0  0
  -11.5969    0.1516    0.5084 C   0  0  0  0  0
    2.2720   -1.6770   -0.7805 C   0  0  0  0  0
  -10.4786   -0.5377    2.5359 C   0  0  0  0  0
   -5.5500    2.0283    0.9310 C   0  0  0  0  0
    0.9025    0.1492    0.1084 C   0  0  0  0  0
   -9.2433   -0.3922    0.4647 C   0  0  0  0  0
    3.4207   -0.9656   -0.4251 C   0  0  0  0  0
  -11.6358   -0.1266    1.8746 C   0  0  0  0  0
   -9.2823   -0.6705    1.8310 C   0  0  0  0  0
    1.0211   -1.1017   -0.5050 C   0  0  0  0  0
   -4.8535    0.9419    0.4443 C   0  0  0  0  0
   -1.2400   -0.3181   -0.1326 C   0  0  0  0  0
   -6.8912    0.2180    0.0787 C   0  0  0  0  0
   -3.3844    0.8292    0.4188 C   0  0  0  0  0
   -2.6491   -0.2189   -0.0916 C   0  0  0  0  0
   -7.9806   -1.5303   -1.3272 C   0  0  0  0  0
   -6.6778   -1.6638   -2.0884 C   0  0  0  0  0
   -0.3985    0.5843    0.3147 N   0  0  0  0  0
   -5.6209   -0.0973   -0.0444 N   0  0  0  0  0
   -7.9784   -0.5317   -0.2844 N   0  0  0  0  0
    4.6996   -1.5240   -0.6929 N   0  0  0  0  0
    5.7243   -0.8766   -0.3702 O   0  0  0  0  0
   -8.9266   -2.2560   -1.6493 O   0  0  0  0  0
    4.7677   -2.6487   -1.2441 O   0  0  0  0  0
  -12.7845    0.0007    2.5514 F   0  0  0  0  0
   -8.1764   -1.0668    2.4769 F   0  0  0  0  0
   -7.2347    1.7490    0.7735 S   0  0  0  0  0
   -0.5547   -1.7264   -0.8205 S   0  0  0  0  0
  1  8  1  0  0  0
  2  9  1  0  0  0
  3 10  1  0  0  0
  4 11  1  0  0  0
  5 13  1  0  0  0
  6 12  1  0  0  0
  7 30  1  0  0  0
  8 21  1  0  0  0
  9 23  1  0  0  0
 10 24  1  0  0  0
 11 28  1  0  0  0
 12 29  1  0  0  0
 13 31  1  0  0  0
 14 17  1  0  0  0
 14 22  1  0  0  0
 15 18  1  0  0  0
 15 31  1  0  0  0
 16 23  1  0  0  0
 16 30  1  0  0  0
 19 23  1  0  0  0
 20 19  1  0  0  0
 24 25  1  0  0  0
  1  3  2  0  0  0
  2  4  2  0  0  0
  5 10  2  0  0  0
  6 11  2  0  0  0
  7 14  2  0  0  0
  8 13  2  0  0  0
  9 12  2  0  0  0
 15 21  2  0  0  0
 16 22  2  0  0  0
 17 18  2  0  0  0
 19 26  2  0  0  0
 24 27  2  0  0  0
M  CHG  2  24   1  25  -1
M  END
> <rmsd>
0.508938372

$$$$
ZINC12801411


 31 34  0  0  0  0  0  0  0  0999 V2000
    2.0788    0.8465    0.4578 C   0  0  0  0  0
   -7.0667   -1.9778   -2.0881 C   0  0  0  0  0
    3.3274    0.2798    0.1861 C   0  0  0  0  0
   -6.8746   -3.2329   -2.6654 C   0  0  0  0  0
    2.2714   -1.6767   -0.7813 C   0  0  0  0  0
   -8.1032   -4.2546   -0.8534 C   0  0  0  0  0
   -5.5503    2.0282    0.9323 C   0  0  0  0  0
    0.9020    0.1492    0.1086 C   0  0  0  0  0
   -7.7770   -1.8612   -0.8932 C   0  0  0  0  0
    3.4202   -0.9655   -0.4255 C   0  0  0  0  0
   -7.3928   -4.3713   -2.0481 C   0  0  0  0  0
   -8.2953   -2.9995   -0.2759 C   0  0  0  0  0
    1.0205   -1.1014   -0.5054 C   0  0  0  0  0
   -4.8539    0.9421    0.4450 C   0  0  0  0  0
   -1.2405   -0.3179   -0.1326 C   0  0  0  0  0
   -6.8916    0.2185    0.0791 C   0  0  0  0  0
   -3.3848    0.8293    0.4194 C   0  0  0  0  0
   -2.6495   -0.2186   -0.0915 C   0  0  0  0  0
   -9.3517   -0.0949   -0.1849 C   0  0  0  0  0
  -10.2718   -0.6259   -1.2645 C   0  0  0  0  0
   -0.3989    0.5842    0.3152 N   0  0  0  0  0
   -5.6214   -0.0969   -0.0442 N   0  0  0  0  0
   -7.9789   -0.5309   -0.2845 N   0  0  0  0  0
    4.6990   -1.5238   -0.6936 N   0  0  0  0  0
    5.7238   -0.8767   -0.3706 O   0  0  0  0  0
   -9.8243    0.6583    0.6723 O   0  0  0  0  0
    4.7670   -2.6482   -1.2454 O   0  0  0  0  0
   -7.2082   -5.5764   -2.6026 F   0  0  0  0  0
   -8.9793   -2.8995    0.8727 F   0  0  0  0  0
   -7.2350    1.7492    0.7747 S   0  0  0  0  0
   -0.5553   -1.7258   -0.8213 S   0  0  0  0  0
  1  8  1  0  0  0
  2  9  1  0  0  0
  3 10  1  0  0  0
  4 11  1  0  0  0
  5 13  1  0  0  0
  6 12  1  0  0  0
  7 30  1  0  0  0
  8 21  1  0  0  0
  9 23  1  0  0  0
 10 24  1  0  0  0
 11 28  1  0  0  0
 12 29  1  0  0  0
 13 31  1  0  0  0
 14 17  1  0  0  0
 14 22  1  0  0  0
 15 18  1  0  0  0
 15 31  1  0  0  0
 16 23  1  0  0  0
 16 30  1  0  0  0
 19 23  1  0  0  0
 20 19  1  0  0  0
 24 25  1  0  0  0
  1  3  2  0  0  0
  2  4  2  0  0  0
  5 10  2  0  0  0
  6 11  2  0  0  0
  7 14  2  0  0  0
  8 13  2  0  0  0
  9 12  2  0  0  0
 15 21  2  0  0  0
 16 22  2  0  0  0
 17 18  2  0  0  0
 19 26  2  0  0  0
 24 27  2  0  0  0
M  CHG  2  24   1  25  -1
M  END
> <rmsd>
0.509030223

$$$$
ZINC12801411


 31 34  0  0  0  0  0  0  0  0999 V2000
    2.0793    0.8466    0.4577 C   0  0  0  0  0
   -8.2972   -2.9954   -0.2695 C   0  0  0  0  0
    3.3279    0.2797    0.1863 C   0  0  0  0  0
   -8.1081   -4.2535   -0.8413 C   0  0  0  0  0
    2.2718   -1.6772   -0.7801 C   0  0  0  0  0
   -6.8779   -3.2426   -2.6585 C   0  0  0  0  0
   -5.5497    2.0292    0.9315 C   0  0  0  0  0
    0.9025    0.1492    0.1088 C   0  0  0  0  0
   -7.7767   -1.8610   -0.8921 C   0  0  0  0  0
    3.4205   -0.9660   -0.4247 C   0  0  0  0  0
   -7.3986   -4.3771   -2.0358 C   0  0  0  0  0
   -7.0671   -1.9845   -2.0866 C   0  0  0  0  0
    1.0209   -1.1017   -0.5046 C   0  0  0  0  0
   -4.8534    0.9427    0.4448 C   0  0  0  0  0
   -1.2401   -0.3178   -0.1322 C   0  0  0  0  0
   -6.8912    0.2192    0.0792 C   0  0  0  0  0
   -3.3843    0.8299    0.4192 C   0  0  0  0  0
   -2.6491   -0.2184   -0.0911 C   0  0  0  0  0
   -9.3512   -0.0942   -0.1847 C   0  0  0  0  0
  -10.2714   -0.6257   -1.2640 C   0  0  0  0  0
   -0.3984    0.5845    0.3152 N   0  0  0  0  0
   -5.6209   -0.0964   -0.0440 N   0  0  0  0  0
   -7.9785   -0.5303   -0.2841 N   0  0  0  0  0
    4.6993   -1.5245   -0.6924 N   0  0  0  0  0
    5.7242   -0.8773   -0.3697 O   0  0  0  0  0
   -9.8238    0.6594    0.6721 O   0  0  0  0  0
    4.7673   -2.6492   -1.2437 O   0  0  0  0  0
   -7.2171   -5.5852   -2.5849 F   0  0  0  0  0
   -6.5626   -0.9011   -2.6941 F   0  0  0  0  0
   -7.2345    1.7502    0.7740 S   0  0  0  0  0
   -0.5550   -1.7261   -0.8202 S   0  0  0  0  0
  1  8  1  0  0  0
  2  9  1  0  0  0
  3 10  1  0  0  0
  4 11  1  0  0  0
  5 13  1  0  0  0
  6 12  1  0  0  0
  7 30  1  0  0  0
  8 21  1  0  0  0
  9 23  1  0  0  0
 10 24  1  0  0  0
 11 28  1  0  0  0
 12 29  1  0  0  0
 13 31  1  0  0  0
 14 17  1  0  0  0
 14 22  1  0  0  0
 15 18  1  0  0  0
 15 31  1  0  0  0
 16 23  1  0  0  0
 16 30  1  0  0  0
 19 23  1  0  0  0
 20 19  1  0  0  0
 24 25  1  0  0  0
  1  3  2  0  0  0
  2  4  2  0  0  0
  5 10  2  0  0  0
  6 11  2  0  0  0
  7 14  2  0  0  0
  8 13  2  0  0  0
  9 12  2  0  0  0
 15 21  2  0  0  0
 16 22  2  0  0  0
 17 18  2  0  0  0
 19 26  2  0  0  0
 24 27  2  0  0  0
M  CHG  2  24   1  25  -1
M  END
> <rmsd>
0.509128749

$$$$
ZINC12801411


 31 34  0  0  0  0  0  0  0  0999 V2000
    2.0792    0.8465    0.4580 C   0  0  0  0  0
   -6.9969   -1.1888   -2.4711 C   0  0  0  0  0
    3.3278    0.2798    0.1863 C   0  0  0  0  0
   -6.8936   -2.0719   -3.5458 C   0  0  0  0  0
    2.2718   -1.6767   -0.7811 C   0  0  0  0  0
   -8.5388   -3.5132   -2.5197 C   0  0  0  0  0
   -5.5499    2.0282    0.9325 C   0  0  0  0  0
    0.9024    0.1492    0.1088 C   0  0  0  0  0
   -7.8712   -1.4679   -1.4206 C   0  0  0  0  0
    3.4206   -0.9655   -0.4253 C   0  0  0  0  0
   -7.6645   -3.2341   -3.5701 C   0  0  0  0  0
   -8.6422   -2.6301   -1.4449 C   0  0  0  0  0
    1.0209   -1.1014   -0.5053 C   0  0  0  0  0
   -4.8535    0.9421    0.4452 C   0  0  0  0  0
   -1.2401   -0.3179   -0.1325 C   0  0  0  0  0
   -6.8912    0.2185    0.0793 C   0  0  0  0  0
   -3.3844    0.8293    0.4196 C   0  0  0  0  0
   -2.6491   -0.2186   -0.0913 C   0  0  0  0  0
   -9.2858   -0.4355    0.3212 C   0  0  0  0  0
   -9.2840   -0.1016    1.7985 C   0  0  0  0  0
   -0.3985    0.5842    0.3153 N   0  0  0  0  0
   -5.6210   -0.0969   -0.0441 N   0  0  0  0  0
   -7.9785   -0.5309   -0.2844 N   0  0  0  0  0
    4.6994   -1.5238   -0.6934 N   0  0  0  0  0
    5.7242   -0.8767   -0.3704 O   0  0  0  0  0
  -10.3717   -0.6070   -0.2414 O   0  0  0  0  0
    4.7674   -2.6483   -1.2452 O   0  0  0  0  0
   -7.5651   -4.0821   -4.6021 F   0  0  0  0  0
   -9.4855   -2.9089   -0.4408 F   0  0  0  0  0
   -7.2346    1.7492    0.7748 S   0  0  0  0  0
   -0.5549   -1.7258   -0.8212 S   0  0  0  0  0
  1  8  1  0  0  0
  2  9  1  0  0  0
  3 10  1  0  0  0
  4 11  1  0  0  0
  5 13  1  0  0  0
  6 12  1  0  0  0
  7 30  1  0  0  0
  8 21  1  0  0  0
  9 23  1  0  0  0
 10 24  1  0  0  0
 11 28  1  0  0  0
 12 29  1  0  0  0
 13 31  1  0  0  0
 14 17  1  0  0  0
 14 22  1  0  0  0
 15 18  1  0  0  0
 15 31  1  0  0  0
 16 23  1  0  0  0
 16 30  1  0  0  0
 19 23  1  0  0  0
 20 19  1  0  0  0
 24 25  1  0  0  0
  1  3  2  0  0  0
  2  4  2  0  0  0
  5 10  2  0  0  0
  6 11  2  0  0  0
  7 14  2  0  0  0
  8 13  2  0  0  0
  9 12  2  0  0  0
 15 21  2  0  0  0
 16 22  2  0  0  0
 17 18  2  0  0  0
 19 26  2  0  0  0
 24 27  2  0  0  0
M  CHG  2  24   1  25  -1
M  END
> <rmsd>
0.509030282

$$$$
ZINC12801411


 31 34  0  0  0  0  0  0  0  0999 V2000
    2.0789    0.8462    0.4580 C   0  0  0  0  0
   -8.6449   -2.6289   -1.4393 C   0  0  0  0  0
    3.3275    0.2796    0.1862 C   0  0  0  0  0
   -8.5456   -3.5159   -2.5112 C   0  0  0  0  0
    2.2716   -1.6769   -0.7812 C   0  0  0  0  0
   -6.8994   -2.0816   -3.5458 C   0  0  0  0  0
   -5.5501    2.0280    0.9325 C   0  0  0  0  0
    0.9022    0.1489    0.1087 C   0  0  0  0  0
   -7.8715   -1.4682   -1.4207 C   0  0  0  0  0
    3.4203   -0.9657   -0.4254 C   0  0  0  0  0
   -7.6729   -3.2423   -3.5644 C   0  0  0  0  0
   -6.9988   -1.1946   -2.4739 C   0  0  0  0  0
    1.0207   -1.1016   -0.5053 C   0  0  0  0  0
   -4.8537    0.9418    0.4451 C   0  0  0  0  0
   -1.2404   -0.3181   -0.1325 C   0  0  0  0  0
   -6.8915    0.2183    0.0792 C   0  0  0  0  0
   -3.3847    0.8291    0.4195 C   0  0  0  0  0
   -2.6494   -0.2188   -0.0914 C   0  0  0  0  0
   -9.2860   -0.4357    0.3211 C   0  0  0  0  0
   -9.2842   -0.1018    1.7985 C   0  0  0  0  0
   -0.3987    0.5840    0.3153 N   0  0  0  0  0
   -5.6212   -0.0971   -0.0441 N   0  0  0  0  0
   -7.9787   -0.5311   -0.2844 N   0  0  0  0  0
    4.6991   -1.5241   -0.6935 N   0  0  0  0  0
    5.7240   -0.8770   -0.3704 O   0  0  0  0  0
  -10.3720   -0.6072   -0.2415 O   0  0  0  0  0
    4.7672   -2.6485   -1.2453 O   0  0  0  0  0
   -7.5777   -4.0940   -4.5937 F   0  0  0  0  0
   -6.2509   -0.0819   -2.4669 F   0  0  0  0  0
   -7.2349    1.7489    0.7748 S   0  0  0  0  0
   -0.5552   -1.7260   -0.8212 S   0  0  0  0  0
  1  8  1  0  0  0
  2  9  1  0  0  0
  3 10  1  0  0  0
  4 11  1  0  0  0
  5 13  1  0  0  0
  6 12  1  0  0  0
  7 30  1  0  0  0
  8 21  1  0  0  0
  9 23  1  0  0  0
 10 24  1  0  0  0
 11 28  1  0  0  0
 12 29  1  0  0  0
 13 31  1  0  0  0
 14 17  1  0  0  0
 14 22  1  0  0  0
 15 18  1  0  0  0
 15 31  1  0  0  0
 16 23  1  0  0  0
 16 30  1  0  0  0
 19 23  1  0  0  0
 20 19  1  0  0  0
 24 25  1  0  0  0
  1  3  2  0  0  0
  2  4  2  0  0  0
  5 10  2  0  0  0
  6 11  2  0  0  0
  7 14  2  0  0  0
  8 13  2  0  0  0
  9 12  2  0  0  0
 15 21  2  0  0  0
 16 22  2  0  0  0
 17 18  2  0  0  0
 19 26  2  0  0  0
 24 27  2  0  0  0
M  CHG  2  24   1  25  -1
M  END
> <rmsd>
0.509030342

$$$$
ZINC27548400


 34 37  0  0  0  0  0  0  0  0999 V2000
   -0.5427   -3.4685    5.7076 C   0  0  0  0  0
   -1.5919   -2.8469    5.0306 C   0  0  0  0  0
    0.2832   -4.3705    5.0365 C   0  0  0  0  0
   -3.6775    0.2841   -3.8512 C   0  0  0  0  0
   -4.9741    0.7446   -3.6226 C   0  0  0  0  0
   -1.8154   -3.1272    3.6826 C   0  0  0  0  0
    0.0596   -4.6508    3.6884 C   0  0  0  0  0
   -2.9500   -0.2961   -2.8119 C   0  0  0  0  0
   -5.5434    0.6250   -2.3549 C   0  0  0  0  0
    1.5544    0.9184   -0.7893 C   0  0  0  0  0
    2.6100   -1.2493    0.5578 C   0  0  0  0  0
   -0.9896   -4.0291    3.0115 C   0  0  0  0  0
    0.7037   -0.1077   -0.3852 C   0  0  0  0  0
    1.2414   -1.2121    0.3011 C   0  0  0  0  0
   -3.5193   -0.4156   -1.5442 C   0  0  0  0  0
    2.9226    0.8714   -0.5274 C   0  0  0  0  0
    3.4526   -0.2171    0.1492 C   0  0  0  0  0
   -4.8160    0.0449   -1.3156 C   0  0  0  0  0
   -1.3884   -1.0580   -0.2366 C   0  0  0  0  0
   -0.8650   -2.1330    0.4314 C   0  0  0  0  0
   -2.1864   -5.5083    1.3446 C   0  0  0  0  0
   -5.2021    1.0278    0.8153 C   0  0  0  0  0
   -1.2322   -4.3333    1.5489 C   0  0  0  0  0
   -0.6129   -0.0394   -0.6496 N   0  0  0  0  0
    0.4491   -2.2202    0.7056 N   0  0  0  0  0
   -2.7742   -1.0027   -0.5053 N   0  0  0  0  0
   -1.7118   -3.1837    0.8486 N   0  0  0  0  0
    3.7437    1.9488   -0.9642 N   0  0  0  0  0
    4.8433   -0.3121    0.4370 N   0  0  0  0  0
    3.9274    2.9199   -0.1938 O   0  0  0  0  0
    5.5968   -0.8669   -0.3965 O   0  0  0  0  0
    4.2581    1.8930   -2.1057 O   0  0  0  0  0
    5.2714    0.1624    1.5150 O   0  0  0  0  0
   -5.3902   -0.0625   -0.0842 O   0  0  0  0  0
  1  2  1  0  0  0
  3  7  1  0  0  0
  4  5  1  0  0  0
  6 12  1  0  0  0
  8 15  1  0  0  0
  9 18  1  0  0  0
 10 13  1  0  0  0
 11 14  1  0  0  0
 13 24  1  0  0  0
 14 25  1  0  0  0
 15 26  1  0  0  0
 16 17  1  0  0  0
 16 28  1  0  0  0
 17 29  1  0  0  0
 18 34  1  0  0  0
 19 20  1  0  0  0
 19 26  1  0  0  0
 20 27  1  0  0  0
 21 23  1  0  0  0
 22 34  1  0  0  0
 23 12  1  0  0  0
 23 27  1  0  0  0
 28 30  1  0  0  0
 29 31  1  0  0  0
  1  3  2  0  0  0
  2  6  2  0  0  0
  4  8  2  0  0  0
  5  9  2  0  0  0
  7 12  2  0  0  0
 10 16  2  0  0  0
 11 17  2  0  0  0
 13 14  2  0  0  0
 15 18  2  0  0  0
 19 24  2  0  0  0
 20 25  2  0  0  0
 28 32  2  0  0  0
 29 33  2  0  0  0
M  CHG  4  28   1  29   1  30  -1  31  -1
M  END
> <rmsd>
0.452538878

$$$$
ZINC27548395


 34 37  0  0  0  0  0  0  0  0999 V2000
    1.5795   -6.9323    1.2282 C   0  0  0  0  0
    1.4985   -6.3315    2.4844 C   0  0  0  0  0
    0.6790   -6.5748    0.2247 C   0  0  0  0  0
   -3.6773    0.2850   -3.8508 C   0  0  0  0  0
   -4.9739    0.7454   -3.6220 C   0  0  0  0  0
    0.5169   -5.3733    2.7372 C   0  0  0  0  0
   -0.3026   -5.6166    0.4775 C   0  0  0  0  0
   -2.9499   -0.2955   -2.8117 C   0  0  0  0  0
   -5.5432    0.6256   -2.3543 C   0  0  0  0  0
    1.5548    0.9187   -0.7889 C   0  0  0  0  0
    2.6104   -1.2494    0.5577 C   0  0  0  0  0
   -0.3837   -5.0158    1.7338 C   0  0  0  0  0
    0.7041   -0.1076   -0.3850 C   0  0  0  0  0
    1.2418   -1.2120    0.3010 C   0  0  0  0  0
   -3.5191   -0.4153   -1.5439 C   0  0  0  0  0
    2.9229    0.8716   -0.5272 C   0  0  0  0  0
    3.4529   -0.2170    0.1492 C   0  0  0  0  0
   -4.8157    0.0452   -1.3151 C   0  0  0  0  0
   -1.3880   -1.0579   -0.2365 C   0  0  0  0  0
   -0.8646   -2.1329    0.4312 C   0  0  0  0  0
   -2.7409   -4.5905    2.5429 C   0  0  0  0  0
   -5.2018    1.0277    0.8159 C   0  0  0  0  0
   -1.4490   -3.9762    2.0081 C   0  0  0  0  0
   -0.6125   -0.0392   -0.6493 N   0  0  0  0  0
    0.4494   -2.2203    0.7053 N   0  0  0  0  0
   -2.7739   -1.0025   -0.5052 N   0  0  0  0  0
   -1.7113   -3.1840    0.8481 N   0  0  0  0  0
    3.7440    1.9491   -0.9637 N   0  0  0  0  0
    4.8436   -0.3120    0.4370 N   0  0  0  0  0
    3.9277    2.9202   -0.1931 O   0  0  0  0  0
    5.5971   -0.8667   -0.3967 O   0  0  0  0  0
    4.2583    1.8935   -2.1052 O   0  0  0  0  0
    5.2719    0.1623    1.5150 O   0  0  0  0  0
   -5.3899   -0.0625   -0.0837 O   0  0  0  0  0
  1  2  1  0  0  0
  3  7  1  0  0  0
  4  5  1  0  0  0
  6 12  1  0  0  0
  8 15  1  0  0  0
  9 18  1  0  0  0
 10 13  1  0  0  0
 11 14  1  0  0  0
 13 24  1  0  0  0
 14 25  1  0  0  0
 15 26  1  0  0  0
 16 17  1  0  0  0
 16 28  1  0  0  0
 17 29  1  0  0  0
 18 34  1  0  0  0
 19 20  1  0  0  0
 19 26  1  0  0  0
 20 27  1  0  0  0
 21 23  1  0  0  0
 22 34  1  0  0  0
 23 12  1  0  0  0
 23 27  1  0  0  0
 28 30  1  0  0  0
 29 31  1  0  0  0
  1  3  2  0  0  0
  2  6  2  0  0  0
  4  8  2  0  0  0
  5  9  2  0  0  0
  7 12  2  0  0  0
 10 16  2  0  0  0
 11 17  2  0  0  0
 13 14  2  0  0  0
 15 18  2  0  0  0
 19 24  2  0  0  0
 20 25  2  0  0  0
 28 32  2  0  0  0
 29 33  2  0  0  0
M  CHG  4  28   1  29   1  30  -1  31  -1
M  END
> <rmsd>
0.452522874

$$$$
ZINC27548395


 34 37  0  0  0  0  0  0  0  0999 V2000
   -1.0574   -6.4424   -2.8904 C   0  0  0  0  0
   -0.1267   -6.7629   -1.9023 C   0  0  0  0  0
   -2.0562   -5.5042   -2.6299 C   0  0  0  0  0
   -3.6776    0.2842   -3.8515 C   0  0  0  0  0
   -4.9743    0.7445   -3.6229 C   0  0  0  0  0
   -0.1948   -6.1453   -0.6534 C   0  0  0  0  0
   -2.1243   -4.8865   -1.3811 C   0  0  0  0  0
   -2.9502   -0.2960   -2.8123 C   0  0  0  0  0
   -5.5435    0.6250   -2.3551 C   0  0  0  0  0
    1.5543    0.9189   -0.7896 C   0  0  0  0  0
    2.6100   -1.2489    0.5575 C   0  0  0  0  0
   -1.1936   -5.2071   -0.3928 C   0  0  0  0  0
    0.7037   -0.1074   -0.3855 C   0  0  0  0  0
    1.2415   -1.2117    0.3007 C   0  0  0  0  0
   -3.5194   -0.4157   -1.5445 C   0  0  0  0  0
    2.9225    0.8720   -0.5278 C   0  0  0  0  0
    3.4525   -0.2165    0.1488 C   0  0  0  0  0
   -4.8160    0.0448   -1.3158 C   0  0  0  0  0
   -1.3883   -1.0578   -0.2369 C   0  0  0  0  0
   -0.8649   -2.1327    0.4310 C   0  0  0  0  0
   -2.1425   -5.3084    1.9485 C   0  0  0  0  0
   -5.2023    1.0276    0.8150 C   0  0  0  0  0
   -1.2676   -4.5371    0.9623 C   0  0  0  0  0
   -0.6129   -0.0392   -0.6499 N   0  0  0  0  0
    0.4492   -2.2199    0.7052 N   0  0  0  0  0
   -2.7742   -1.0027   -0.5056 N   0  0  0  0  0
   -1.7115   -3.1837    0.8482 N   0  0  0  0  0
    3.7435    1.9494   -0.9645 N   0  0  0  0  0
    4.8432   -0.3113    0.4367 N   0  0  0  0  0
    3.9271    2.9207   -0.1941 O   0  0  0  0  0
    5.5968   -0.8661   -0.3969 O   0  0  0  0  0
    4.2578    1.8937   -2.1060 O   0  0  0  0  0
    5.2714    0.1631    1.5146 O   0  0  0  0  0
   -5.3903   -0.0627   -0.0844 O   0  0  0  0  0
  1  2  1  0  0  0
  3  7  1  0  0  0
  4  5  1  0  0  0
  6 12  1  0  0  0
  8 15  1  0  0  0
  9 18  1  0  0  0
 10 13  1  0  0  0
 11 14  1  0  0  0
 13 24  1  0  0  0
 14 25  1  0  0  0
 15 26  1  0  0  0
 16 17  1  0  0  0
 16 28  1  0  0  0
 17 29  1  0  0  0
 18 34  1  0  0  0
 19 20  1  0  0  0
 19 26  1  0  0  0
 20 27  1  0  0  0
 21 23  1  0  0  0
 22 34  1  0  0  0
 23 12  1  0  0  0
 23 27  1  0  0  0
 28 30  1  0  0  0
 29 31  1  0  0  0
  1  3  2  0  0  0
  2  6  2  0  0  0
  4  8  2  0  0  0
  5  9  2  0  0  0
  7 12  2  0  0  0
 10 16  2  0  0  0
 11 17  2  0  0  0
 13 14  2  0  0  0
 15 18  2  0  0  0
 19 24  2  0  0  0
 20 25  2  0  0  0
 28 32  2  0  0  0
 29 33  2  0  0  0
M  CHG  4  28   1  29   1  30  -1  31  -1
M  END
> <rmsd>
0.45252493

$$$$
ZINC02050348


 32 34  0  0  0  0  0  0  0  0999 V2000
   -2.3586    5.8233   -0.0983 C   0  0  0  0  0
   -1.4640    4.1955   -1.6433 C   0  0  0  0  0
    2.0474    0.9771    0.0732 C   0  0  0  0  0
    3.2968    0.3697   -0.0824 C   0  0  0  0  0
   -1.5397    6.8042   -0.6574 C   0  0  0  0  0
   -0.6450    5.1765   -2.2025 C   0  0  0  0  0
    2.2506   -1.8018   -0.3454 C   0  0  0  0  0
   -2.3208    4.5190   -0.5911 C   0  0  0  0  0
    0.8753    0.1920    0.0203 C   0  0  0  0  0
    3.3948   -1.0020   -0.2888 C   0  0  0  0  0
   -0.6830    6.4808   -1.7096 C   0  0  0  0  0
    0.9990   -1.1850   -0.1883 C   0  0  0  0  0
   -1.2623   -0.3526    0.0539 C   0  0  0  0  0
   -3.1929    3.4754    0.0034 C   0  0  0  0  0
   -4.7851    0.8232   -0.3085 C   0  0  0  0  0
   -6.2024    1.6884   -1.9970 C   0  0  0  0  0
   -3.4231    0.9794    0.3818 C   0  0  0  0  0
   -3.7126    1.1092    1.8826 C   0  0  0  0  0
   -0.4258    0.6536    0.1570 N   0  0  0  0  0
   -2.6406   -0.2332    0.1464 N   0  0  0  0  0
   -2.7201    2.1754   -0.0993 N   0  0  0  0  0
    4.6741   -1.6000   -0.4434 N   0  0  0  0  0
    5.6949   -0.8727   -0.3900 O   0  0  0  0  0
   -4.2603    3.8111    0.5081 O   0  0  0  0  0
   -5.5617   -0.0965   -0.0707 O   0  0  0  0  0
    4.7473   -2.8385   -0.6286 O   0  0  0  0  0
   -4.9852    1.7893   -1.2512 O   0  0  0  0  0
    0.1028    7.4231   -2.2468 F   0  0  0  0  0
   -4.3533    0.0175    2.3613 F   0  0  0  0  0
   -2.5688    1.2492    2.5914 F   0  0  0  0  0
   -4.4928    2.1767    2.1601 F   0  0  0  0  0
   -0.5719   -1.8953   -0.2094 S   0  0  0  0  0
  1  8  1  0  0  0
  2  6  1  0  0  0
  3  9  1  0  0  0
  4 10  1  0  0  0
  5 11  1  0  0  0
  7 12  1  0  0  0
  8 14  1  0  0  0
  9 19  1  0  0  0
 10 22  1  0  0  0
 11 28  1  0  0  0
 12 32  1  0  0  0
 13 20  1  0  0  0
 13 32  1  0  0  0
 14 21  1  0  0  0
 15 27  1  0  0  0
 16 27  1  0  0  0
 17 15  1  0  0  0
 17 18  1  0  0  0
 17 20  1  0  0  0
 17 21  1  0  0  0
 18 29  1  0  0  0
 18 30  1  0  0  0
 18 31  1  0  0  0
 22 23  1  0  0  0
  1  5  2  0  0  0
  2  8  2  0  0  0
  3  4  2  0  0  0
  6 11  2  0  0  0
  7 10  2  0  0  0
  9 12  2  0  0  0
 13 19  2  0  0  0
 14 24  2  0  0  0
 15 25  2  0  0  0
 22 26  2  0  0  0
M  CHG  2  22   1  23  -1
M  END
> <rmsd>
0.495354176

$$$$
ZINC22709950


 34 38  0  0  0  0  0  0  0  0999 V2000
   -4.5878    0.1190    0.9498 C   0  0  0  0  0
    2.1350    1.3942    0.1872 C   0  0  0  0  0
   -2.7256    5.0866    3.5617 C   0  0  0  0  0
   -0.3632    4.6906    3.8766 C   0  0  0  0  0
    3.3020    0.6514    0.0086 C   0  0  0  0  0
   -2.4501    6.3813    3.1221 C   0  0  0  0  0
   -0.0876    5.9853    3.4369 C   0  0  0  0  0
   -0.8168    2.6741   -0.3710 C   0  0  0  0  0
   -2.0304    2.9664    0.2960 C   0  0  0  0  0
    1.9789   -1.3245   -0.4182 C   0  0  0  0  0
   -1.6822    4.2412    3.9390 C   0  0  0  0  0
    0.8899    0.7777    0.0632 C   0  0  0  0  0
   -2.6137    1.8801    3.6793 C   0  0  0  0  0
    0.8118   -0.5817   -0.2395 C   0  0  0  0  0
    3.2239   -0.7080   -0.2942 C   0  0  0  0  0
   -1.1310    6.8307    3.0596 C   0  0  0  0  0
   -1.9664    2.9043    4.3925 C   0  0  0  0  0
   -0.2961    1.5641    0.2524 C   0  0  0  0  0
   -2.1649    2.0141    1.2793 C   0  0  0  0  0
   -2.6484    0.8279    4.5542 C   0  0  0  0  0
   -3.8738    0.3710    2.1663 C   0  0  0  0  0
   -3.8297   -0.5876    3.1384 C   0  0  0  0  0
   -3.2022    1.7595    2.3150 C   0  0  0  0  0
   -0.5044   -1.2773   -0.3788 C   0  0  0  0  0
   -5.1660   -0.0847   -0.0351 N   0  0  0  0  0
   -1.6064    2.5192    5.6243 N   0  0  0  0  0
   -2.0351    1.2419    5.6931 N   0  0  0  0  0
   -4.4072   -1.8251    3.0393 N   0  0  0  0  0
    4.4121   -1.4638   -0.4763 N   0  0  0  0  0
    5.5218   -0.8896   -0.3604 O   0  0  0  0  0
    4.3201   -2.6855   -0.7476 O   0  0  0  0  0
   -1.1119    1.1554    1.2594 O   0  0  0  0  0
   -3.1748   -0.3756    4.3693 O   0  0  0  0  0
   -0.7898    8.4275    2.5160 Cl  0  0  0  0  0
  2 12  1  0  0  0
  3 11  1  0  0  0
  4  7  1  0  0  0
  5 15  1  0  0  0
  6 16  1  0  0  0
  8  9  1  0  0  0
 10 14  1  0  0  0
 11 17  1  0  0  0
 12 18  1  0  0  0
 13 17  1  0  0  0
 15 29  1  0  0  0
 16 34  1  0  0  0
 18 32  1  0  0  0
 19 32  1  0  0  0
 20 27  1  0  0  0
 20 33  1  0  0  0
 21  1  1  0  0  0
 22 28  1  0  0  0
 22 33  1  0  0  0
 23 13  1  0  0  0
 23 19  1  0  0  0
 23 21  1  0  0  0
 24 14  1  0  0  0
 27 26  1  0  0  0
 29 30  1  0  0  0
  2  5  2  0  0  0
  3  6  2  0  0  0
  4 11  2  0  0  0
  7 16  2  0  0  0
  8 18  2  0  0  0
  9 19  2  0  0  0
 10 15  2  0  0  0
 12 14  2  0  0  0
 13 20  2  0  0  0
 17 26  2  0  0  0
 21 22  2  0  0  0
 29 31  2  0  0  0
  1 25  3  0  0  0
M  CHG  2  29   1  30  -1
M  END
> <rmsd>
0.55529803

$$$$
ZINC16653733


 32 34  0  0  0  0  0  0  0  0999 V2000
   -4.7369    1.0290    3.3322 C   0  0  0  0  0
    2.3595    4.2629    3.7562 C   0  0  0  0  0
    2.2354    1.4092   -0.0555 C   0  0  0  0  0
   -3.5867    1.7965    3.1495 C   0  0  0  0  0
    3.4101    0.6674   -0.1785 C   0  0  0  0  0
   -5.3434    0.4101    2.2391 C   0  0  0  0  0
    1.0356    3.8621    3.4562 C   0  0  0  0  0
   -3.6491    1.3264    0.7805 C   0  0  0  0  0
    2.1276   -1.3782   -0.0892 C   0  0  0  0  0
    3.1479    3.1526    3.5620 C   0  0  0  0  0
    1.0067    0.7574    0.0508 C   0  0  0  0  0
   -3.0428    1.9453    1.8737 C   0  0  0  0  0
    3.3563   -0.7263   -0.1954 C   0  0  0  0  0
   -4.7994    0.5587    0.9632 C   0  0  0  0  0
    0.9529   -0.6363    0.0339 C   0  0  0  0  0
    1.1095    2.5356    3.0997 C   0  0  0  0  0
   -0.1942    1.5735    0.1801 C   0  0  0  0  0
   -7.0878    0.1293   -3.6585 C   0  0  0  0  0
   -1.8053    2.7724    1.6771 C   0  0  0  0  0
    0.0810    1.5283    2.6738 C   0  0  0  0  0
   -6.7311   -0.3260   -2.2611 C   0  0  0  0  0
   -0.6255    1.9458    1.4646 N   0  0  0  0  0
    4.5522   -1.4814   -0.3232 N   0  0  0  0  0
    5.6465   -0.8751   -0.4195 O   0  0  0  0  0
   -0.7604    1.9035   -0.8687 O   0  0  0  0  0
    4.4819   -2.7340   -0.3358 O   0  0  0  0  0
   -5.6840    1.9713   -1.5950 O   0  0  0  0  0
   -4.1513    0.0752   -2.2997 O   0  0  0  0  0
    2.3937    2.0956    3.1616 O   0  0  0  0  0
   -5.3914   -0.0450   -0.1035 O   0  0  0  0  0
   -5.3356    0.5648   -1.6229 S   0  0  0  0  0
   -0.5477   -1.4812    0.1646 Cl  0  0  0  0  0
  1  4  1  0  0  0
  2  7  1  0  0  0
  3 11  1  0  0  0
  5 13  1  0  0  0
  6 14  1  0  0  0
  8 12  1  0  0  0
  9 15  1  0  0  0
 10 29  1  0  0  0
 11 17  1  0  0  0
 13 23  1  0  0  0
 14 30  1  0  0  0
 15 32  1  0  0  0
 16 29  1  0  0  0
 17 22  1  0  0  0
 18 21  1  0  0  0
 19 12  1  0  0  0
 19 22  1  0  0  0
 20 16  1  0  0  0
 20 22  1  0  0  0
 21 31  1  0  0  0
 23 24  1  0  0  0
 31 30  1  0  0  0
  1  6  2  0  0  0
  2 10  2  0  0  0
  3  5  2  0  0  0
  4 12  2  0  0  0
  7 16  2  0  0  0
  8 14  2  0  0  0
  9 13  2  0  0  0
 11 15  2  0  0  0
 17 25  2  0  0  0
 23 26  2  0  0  0
 31 27  2  0  0  0
 31 28  2  0  0  0
M  CHG  2  23   1  24  -1
M  END
> <rmsd>
0.53865695

$$$$
ZINC16653733


 32 34  0  0  0  0  0  0  0  0999 V2000
   -4.7365    1.0287    3.3324 C   0  0  0  0  0
    2.8763    3.7624    3.6924 C   0  0  0  0  0
    2.2357    1.4095   -0.0556 C   0  0  0  0  0
   -3.5863    1.7963    3.1498 C   0  0  0  0  0
    3.4104    0.6677   -0.1788 C   0  0  0  0  0
   -5.3430    0.4099    2.2391 C   0  0  0  0  0
    2.4725    2.4710    3.2769 C   0  0  0  0  0
   -3.6488    1.3265    0.7807 C   0  0  0  0  0
    2.1280   -1.3779   -0.0896 C   0  0  0  0  0
    1.7318    4.5239    3.7393 C   0  0  0  0  0
    1.0070    0.7576    0.0507 C   0  0  0  0  0
   -3.0425    1.9452    1.8739 C   0  0  0  0  0
    3.3566   -0.7260   -0.1959 C   0  0  0  0  0
   -4.7991    0.5588    0.9633 C   0  0  0  0  0
    0.9532   -0.6361    0.0336 C   0  0  0  0  0
    1.1099    2.5355    3.0998 C   0  0  0  0  0
   -0.1939    1.5738    0.1801 C   0  0  0  0  0
   -5.9353   -0.9021   -3.9133 C   0  0  0  0  0
   -1.8049    2.7724    1.6774 C   0  0  0  0  0
    0.0814    1.5281    2.6738 C   0  0  0  0  0
   -6.0618   -0.9254   -2.4065 C   0  0  0  0  0
   -0.6251    1.9458    1.4647 N   0  0  0  0  0
    4.5526   -1.4810   -0.3238 N   0  0  0  0  0
    5.6468   -0.8747   -0.4200 O   0  0  0  0  0
   -0.7601    1.9038   -0.8686 O   0  0  0  0  0
    4.4823   -2.7337   -0.3366 O   0  0  0  0  0
   -4.9894    1.4366   -2.1084 O   0  0  0  0  0
   -3.5557   -0.6244   -1.7378 O   0  0  0  0  0
    0.6506    3.7834    3.3796 O   0  0  0  0  0
   -5.3911   -0.0448   -0.1034 O   0  0  0  0  0
   -4.8191    0.0780   -1.6336 S   0  0  0  0  0
   -0.5473   -1.4810    0.1642 Cl  0  0  0  0  0
  1  4  1  0  0  0
  2  7  1  0  0  0
  3 11  1  0  0  0
  5 13  1  0  0  0
  6 14  1  0  0  0
  8 12  1  0  0  0
  9 15  1  0  0  0
 10 29  1  0  0  0
 11 17  1  0  0  0
 13 23  1  0  0  0
 14 30  1  0  0  0
 15 32  1  0  0  0
 16 29  1  0  0  0
 17 22  1  0  0  0
 18 21  1  0  0  0
 19 12  1  0  0  0
 19 22  1  0  0  0
 20 16  1  0  0  0
 20 22  1  0  0  0
 21 31  1  0  0  0
 23 24  1  0  0  0
 31 30  1  0  0  0
  1  6  2  0  0  0
  2 10  2  0  0  0
  3  5  2  0  0  0
  4 12  2  0  0  0
  7 16  2  0  0  0
  8 14  2  0  0  0
  9 13  2  0  0  0
 11 15  2  0  0  0
 17 25  2  0  0  0
 23 26  2  0  0  0
 31 27  2  0  0  0
 31 28  2  0  0  0
M  CHG  2  23   1  24  -1
M  END
> <rmsd>
0.538641989

$$$$
ZINC08426318


 35 39  0  0  0  0  0  0  0  0999 V2000
    3.8337   -3.4116   -0.2332 C   0  0  0  0  0
    4.5045   -4.5527   -0.6796 C   0  0  0  0  0
    3.9768   -2.4092   -2.4475 C   0  0  0  0  0
    3.5394   -0.0609   -0.0811 C   0  0  0  0  0
    3.5712   -2.3459   -1.1122 C   0  0  0  0  0
    2.8687   -1.1646   -0.6238 C   0  0  0  0  0
    1.4857   -1.1343   -0.7002 C   0  0  0  0  0
    4.8941   -4.5901   -2.0025 C   0  0  0  0  0
    4.6373   -3.5471   -2.8629 C   0  0  0  0  0
    2.8110    1.0456    0.3716 C   0  0  0  0  0
    0.8198   -0.0096   -0.2350 C   0  0  0  0  0
    4.9260   -0.0025    0.0356 C   0  0  0  0  0
    4.7958    2.0506    0.9553 C   0  0  0  0  0
    0.7081   -2.2576   -1.2590 C   0  0  0  0  0
   -1.2378   -0.8957   -0.7701 C   0  0  0  0  0
    7.2431    3.6919    3.8511 C   0  0  0  0  0
   -4.8161    0.3929    0.7370 C   0  0  0  0  0
    5.6835   -5.0963   -3.9526 C   0  0  0  0  0
    7.9717    3.1153    5.0209 C   0  0  0  0  0
   -5.1878    1.2564    1.8979 C   0  0  0  0  0
    6.4457    2.6922    3.0480 C   0  0  0  0  0
   -3.3321    0.1785    0.5585 C   0  0  0  0  0
    1.4725    1.0568    0.2897 N   0  0  0  0  0
    3.4488    2.1007    0.8904 N   0  0  0  0  0
    5.5870    1.0464    0.5530 N   0  0  0  0  0
   -0.5828    0.1041   -0.2750 N   0  0  0  0  0
   -0.6616   -2.0505   -1.2547 N   0  0  0  0  0
    5.7528   -0.9139   -0.3222 O   0  0  0  0  0
    1.1990   -3.2920   -1.6948 O   0  0  0  0  0
    7.3308    4.8901    3.6173 O   0  0  0  0  0
   -5.6967   -0.0708    0.0245 O   0  0  0  0  0
    5.5534   -5.6126   -2.6123 O   0  0  0  0  0
    5.1038   -3.7859   -4.1187 O   0  0  0  0  0
    5.6087    3.4748    1.6518 S   0  0  0  0  0
   -2.9772   -0.8663   -0.8704 S   0  0  0  0  0
  1  5  1  0  0  0
  2  8  1  0  0  0
  3  9  1  0  0  0
  4 10  1  0  0  0
  4 12  1  0  0  0
  5  6  1  0  0  0
  6  7  1  0  0  0
  7 14  1  0  0  0
  8 32  1  0  0  0
  9 33  1  0  0  0
 10 24  1  0  0  0
 11 23  1  0  0  0
 11 26  1  0  0  0
 12 25  1  0  0  0
 13 25  1  0  0  0
 13 34  1  0  0  0
 14 27  1  0  0  0
 15 27  1  0  0  0
 15 35  1  0  0  0
 18 32  1  0  0  0
 18 33  1  0  0  0
 19 16  1  0  0  0
 20 17  1  0  0  0
 21 16  1  0  0  0
 21 34  1  0  0  0
 22 17  1  0  0  0
 22 35  1  0  0  0
  1  2  2  0  0  0
  3  5  2  0  0  0
  4  6  2  0  0  0
  7 11  2  0  0  0
  8  9  2  0  0  0
 10 23  2  0  0  0
 12 28  2  0  0  0
 13 24  2  0  0  0
 14 29  2  0  0  0
 15 26  2  0  0  0
 16 30  2  0  0  0
 17 31  2  0  0  0
M  CHG  1  28  -1
M  END
> <rmsd>
0.528314292

$$$$
ZINC08426318


 35 39  0  0  0  0  0  0  0  0999 V2000
    3.9780   -2.4065   -2.4570 C   0  0  0  0  0
    4.6526   -3.5277   -2.9460 C   0  0  0  0  0
    3.8333   -3.4067   -0.2418 C   0  0  0  0  0
    3.5391   -0.0614   -0.0811 C   0  0  0  0  0
    3.5707   -2.3462   -1.1126 C   0  0  0  0  0
    2.8684   -1.1649   -0.6240 C   0  0  0  0  0
    1.4854   -1.1345   -0.7004 C   0  0  0  0  0
    4.8993   -4.5610   -2.0658 C   0  0  0  0  0
    4.5008   -4.5020   -0.7499 C   0  0  0  0  0
    2.8108    1.0451    0.3719 C   0  0  0  0  0
    0.8196   -0.0098   -0.2349 C   0  0  0  0  0
    4.9257   -0.0031    0.0356 C   0  0  0  0  0
    4.7958    2.0498    0.9557 C   0  0  0  0  0
    0.7076   -2.2576   -1.2593 C   0  0  0  0  0
   -1.2381   -0.8956   -0.7701 C   0  0  0  0  0
    7.2433    3.6902    3.8518 C   0  0  0  0  0
   -4.8163    0.3930    0.7373 C   0  0  0  0  0
    5.4998   -6.3924   -1.0822 C   0  0  0  0  0
    7.9719    3.1133    5.0214 C   0  0  0  0  0
   -5.1879    1.2563    1.8985 C   0  0  0  0  0
    6.4459    2.6908    3.0485 C   0  0  0  0  0
   -3.3323    0.1785    0.5588 C   0  0  0  0  0
    1.4723    1.0564    0.2900 N   0  0  0  0  0
    3.4487    2.1001    0.8908 N   0  0  0  0  0
    5.5869    1.0456    0.5532 N   0  0  0  0  0
   -0.5830    0.1041   -0.2749 N   0  0  0  0  0
   -0.6621   -2.0504   -1.2550 N   0  0  0  0  0
    5.7525   -0.9146   -0.3224 O   0  0  0  0  0
    1.1984   -3.2919   -1.6954 O   0  0  0  0  0
    7.3312    4.8885    3.6182 O   0  0  0  0  0
   -5.6969   -0.0704    0.0247 O   0  0  0  0  0
    5.5403   -5.7249   -2.3600 O   0  0  0  0  0
    4.8421   -5.6218   -0.0556 O   0  0  0  0  0
    5.6089    3.4738    1.6525 S   0  0  0  0  0
   -2.9775   -0.8660   -0.8704 S   0  0  0  0  0
  1  5  1  0  0  0
  2  8  1  0  0  0
  3  9  1  0  0  0
  4 10  1  0  0  0
  4 12  1  0  0  0
  5  6  1  0  0  0
  6  7  1  0  0  0
  7 14  1  0  0  0
  8 32  1  0  0  0
  9 33  1  0  0  0
 10 24  1  0  0  0
 11 23  1  0  0  0
 11 26  1  0  0  0
 12 25  1  0  0  0
 13 25  1  0  0  0
 13 34  1  0  0  0
 14 27  1  0  0  0
 15 27  1  0  0  0
 15 35  1  0  0  0
 18 32  1  0  0  0
 18 33  1  0  0  0
 19 16  1  0  0  0
 20 17  1  0  0  0
 21 16  1  0  0  0
 21 34  1  0  0  0
 22 17  1  0  0  0
 22 35  1  0  0  0
  1  2  2  0  0  0
  3  5  2  0  0  0
  4  6  2  0  0  0
  7 11  2  0  0  0
  8  9  2  0  0  0
 10 23  2  0  0  0
 12 28  2  0  0  0
 13 24  2  0  0  0
 14 29  2  0  0  0
 15 26  2  0  0  0
 16 30  2  0  0  0
 17 31  2  0  0  0
M  CHG  1  28  -1
M  END
> <rmsd>
0.528179109

$$$$
ZINC08426318


 35 39  0  0  0  0  0  0  0  0999 V2000
    3.8337   -3.4117   -0.2347 C   0  0  0  0  0
    4.5045   -4.5526   -0.6813 C   0  0  0  0  0
    3.9768   -2.4087   -2.4487 C   0  0  0  0  0
    3.5394   -0.0610   -0.0817 C   0  0  0  0  0
    3.5712   -2.3458   -1.1133 C   0  0  0  0  0
    2.8687   -1.1646   -0.6246 C   0  0  0  0  0
    1.4857   -1.1343   -0.7010 C   0  0  0  0  0
    4.8941   -4.5897   -2.0043 C   0  0  0  0  0
    4.6373   -3.5464   -2.8644 C   0  0  0  0  0
    2.8109    1.0453    0.3714 C   0  0  0  0  0
    0.8198   -0.0097   -0.2354 C   0  0  0  0  0
    4.9260   -0.0026    0.0351 C   0  0  0  0  0
    4.7958    2.0502    0.9553 C   0  0  0  0  0
    0.7080   -2.2575   -1.2600 C   0  0  0  0  0
   -1.2378   -0.8957   -0.7707 C   0  0  0  0  0
    7.4579    5.1834    0.5503 C   0  0  0  0  0
   -4.8161    0.3924    0.7369 C   0  0  0  0  0
    5.6834   -5.0953   -3.9545 C   0  0  0  0  0
    8.3236    5.6507   -0.5739 C   0  0  0  0  0
   -5.1878    1.2556    1.8981 C   0  0  0  0  0
    6.6283    3.9599    0.2425 C   0  0  0  0  0
   -3.3321    0.1781    0.5583 C   0  0  0  0  0
    1.4724    1.0565    0.2895 N   0  0  0  0  0
    3.4487    2.1003    0.8904 N   0  0  0  0  0
    5.5870    1.0461    0.5527 N   0  0  0  0  0
   -0.5828    0.1040   -0.2753 N   0  0  0  0  0
   -0.6617   -2.0504   -1.2556 N   0  0  0  0  0
    5.7528   -0.9140   -0.3231 O   0  0  0  0  0
    1.1989   -3.2917   -1.6961 O   0  0  0  0  0
    7.4669    5.7932    1.6116 O   0  0  0  0  0
   -5.6967   -0.0711    0.0243 O   0  0  0  0  0
    5.5534   -5.6120   -2.6144 O   0  0  0  0  0
    5.1037   -3.7850   -4.1203 O   0  0  0  0  0
    5.6087    3.4743    1.6521 S   0  0  0  0  0
   -2.9772   -0.8663   -0.8709 S   0  0  0  0  0
  1  5  1  0  0  0
  2  8  1  0  0  0
  3  9  1  0  0  0
  4 10  1  0  0  0
  4 12  1  0  0  0
  5  6  1  0  0  0
  6  7  1  0  0  0
  7 14  1  0  0  0
  8 32  1  0  0  0
  9 33  1  0  0  0
 10 24  1  0  0  0
 11 23  1  0  0  0
 11 26  1  0  0  0
 12 25  1  0  0  0
 13 25  1  0  0  0
 13 34  1  0  0  0
 14 27  1  0  0  0
 15 27  1  0  0  0
 15 35  1  0  0  0
 18 32  1  0  0  0
 18 33  1  0  0  0
 19 16  1  0  0  0
 20 17  1  0  0  0
 21 16  1  0  0  0
 21 34  1  0  0  0
 22 17  1  0  0  0
 22 35  1  0  0  0
  1  2  2  0  0  0
  3  5  2  0  0  0
  4  6  2  0  0  0
  7 11  2  0  0  0
  8  9  2  0  0  0
 10 23  2  0  0  0
 12 28  2  0  0  0
 13 24  2  0  0  0
 14 29  2  0  0  0
 15 26  2  0  0  0
 16 30  2  0  0  0
 17 31  2  0  0  0
M  CHG  1  28  -1
M  END
> <rmsd>
0.528167188

$$$$
ZINC08426318


 35 39  0  0  0  0  0  0  0  0999 V2000
    3.9781   -2.4062   -2.4570 C   0  0  0  0  0
    4.6527   -3.5275   -2.9460 C   0  0  0  0  0
    3.8334   -3.4064   -0.2418 C   0  0  0  0  0
    3.5392   -0.0612   -0.0811 C   0  0  0  0  0
    3.5708   -2.3460   -1.1126 C   0  0  0  0  0
    2.8685   -1.1647   -0.6240 C   0  0  0  0  0
    1.4855   -1.1343   -0.7003 C   0  0  0  0  0
    4.8994   -4.5608   -2.0657 C   0  0  0  0  0
    4.5009   -4.5018   -0.7498 C   0  0  0  0  0
    2.8109    1.0453    0.3720 C   0  0  0  0  0
    0.8197   -0.0095   -0.2348 C   0  0  0  0  0
    4.9258   -0.0029    0.0357 C   0  0  0  0  0
    4.7959    2.0500    0.9558 C   0  0  0  0  0
    0.7077   -2.2574   -1.2593 C   0  0  0  0  0
   -1.2380   -0.8954   -0.7701 C   0  0  0  0  0
    7.4584    5.1829    0.5507 C   0  0  0  0  0
   -4.8162    0.3933    0.7374 C   0  0  0  0  0
    5.4999   -6.3922   -1.0821 C   0  0  0  0  0
    8.3241    5.6500   -0.5735 C   0  0  0  0  0
   -5.1878    1.2566    1.8985 C   0  0  0  0  0
    6.6286    3.9594    0.2430 C   0  0  0  0  0
   -3.3322    0.1787    0.5588 C   0  0  0  0  0
    1.4724    1.0566    0.2900 N   0  0  0  0  0
    3.4488    2.1003    0.8909 N   0  0  0  0  0
    5.5870    1.0458    0.5533 N   0  0  0  0  0
   -0.5829    0.1043   -0.2748 N   0  0  0  0  0
   -0.6620   -2.0501   -1.2550 N   0  0  0  0  0
    5.7526   -0.9144   -0.3224 O   0  0  0  0  0
    1.1985   -3.2917   -1.6953 O   0  0  0  0  0
    7.4674    5.7927    1.6120 O   0  0  0  0  0
   -5.6968   -0.0702    0.0248 O   0  0  0  0  0
    5.5403   -5.7247   -2.3599 O   0  0  0  0  0
    4.8422   -5.6216   -0.0556 O   0  0  0  0  0
    5.6090    3.4740    1.6525 S   0  0  0  0  0
   -2.9774   -0.8658   -0.8704 S   0  0  0  0  0
  1  5  1  0  0  0
  2  8  1  0  0  0
  3  9  1  0  0  0
  4 10  1  0  0  0
  4 12  1  0  0  0
  5  6  1  0  0  0
  6  7  1  0  0  0
  7 14  1  0  0  0
  8 32  1  0  0  0
  9 33  1  0  0  0
 10 24  1  0  0  0
 11 23  1  0  0  0
 11 26  1  0  0  0
 12 25  1  0  0  0
 13 25  1  0  0  0
 13 34  1  0  0  0
 14 27  1  0  0  0
 15 27  1  0  0  0
 15 35  1  0  0  0
 18 32  1  0  0  0
 18 33  1  0  0  0
 19 16  1  0  0  0
 20 17  1  0  0  0
 21 16  1  0  0  0
 21 34  1  0  0  0
 22 17  1  0  0  0
 22 35  1  0  0  0
  1  2  2  0  0  0
  3  5  2  0  0  0
  4  6  2  0  0  0
  7 11  2  0  0  0
  8  9  2  0  0  0
 10 23  2  0  0  0
 12 28  2  0  0  0
 13 24  2  0  0  0
 14 29  2  0  0  0
 15 26  2  0  0  0
 16 30  2  0  0  0
 17 31  2  0  0  0
M  CHG  1  28  -1
M  END
> <rmsd>
0.528179049

$$$$
ZINC12565606


 35 39  0  0  0  0  0  0  0  0999 V2000
   -4.4987    1.2852    8.9529 C   0  0  0  0  0
   -3.6285    2.3018    8.5704 C   0  0  0  0  0
   -5.7221    1.1308    8.3004 C   0  0  0  0  0
   -3.9783    3.1677    7.5340 C   0  0  0  0  0
   -7.3181    1.8524    6.5872 C   0  0  0  0  0
    1.9978    0.9052    0.3192 C   0  0  0  0  0
    3.2481    0.3120    0.0915 C   0  0  0  0  0
   -7.6679    2.7183    5.5508 C   0  0  0  0  0
   -5.5742    3.8894    5.8208 C   0  0  0  0  0
    2.2179   -1.7577   -0.6942 C   0  0  0  0  0
   -6.0907    1.9932    7.2551 C   0  0  0  0  0
   -5.2057    3.0270    6.8661 C   0  0  0  0  0
    0.8498    0.1523    0.0343 C   0  0  0  0  0
    3.3533   -0.9930   -0.4051 C   0  0  0  0  0
    0.9981   -1.1366   -0.4562 C   0  0  0  0  0
   -6.7977    3.7349    5.1683 C   0  0  0  0  0
   -1.0796   -0.6449   -0.2661 C   0  0  0  0  0
   -4.8453    0.8829    0.3205 C   0  0  0  0  0
   -4.6363    3.2593    1.2041 C   0  0  0  0  0
   -6.8485    2.2660    0.7669 C   0  0  0  0  0
   -5.1194    3.7400    2.5692 C   0  0  0  0  0
   -7.3378    2.7400    2.1307 C   0  0  0  0  0
   -3.3399    0.8031    0.2881 C   0  0  0  0  0
   -0.4860    0.4520    0.1503 N   0  0  0  0  0
   -5.3966    2.0818    0.7692 N   0  0  0  0  0
   -6.5942    3.9757    2.5215 N   0  0  0  0  0
    4.6411   -1.5546   -0.6206 N   0  0  0  0  0
    5.6552   -0.8644   -0.3597 O   0  0  0  0  0
   -5.5092   -0.0925   -0.0394 O   0  0  0  0  0
    4.7263   -2.7241   -1.0652 O   0  0  0  0  0
   -8.6866    4.8364    3.7570 O   0  0  0  0  0
   -6.5017    6.0601    4.0325 O   0  0  0  0  0
   -0.2501   -1.6548   -0.6515 O   0  0  0  0  0
   -2.8393   -0.8137   -0.3278 S   0  0  0  0  0
   -7.2432    4.8299    3.8576 S   0  0  0  0  0
  1  2  1  0  0  0
  3 11  1  0  0  0
  4 12  1  0  0  0
  5 11  1  0  0  0
  6 13  1  0  0  0
  7 14  1  0  0  0
  8 16  1  0  0  0
  9 12  1  0  0  0
 10 15  1  0  0  0
 13 24  1  0  0  0
 14 27  1  0  0  0
 15 33  1  0  0  0
 17 33  1  0  0  0
 17 34  1  0  0  0
 18 25  1  0  0  0
 19 21  1  0  0  0
 19 25  1  0  0  0
 20 22  1  0  0  0
 20 25  1  0  0  0
 21 26  1  0  0  0
 22 26  1  0  0  0
 23 18  1  0  0  0
 23 34  1  0  0  0
 27 28  1  0  0  0
 35 16  1  0  0  0
 35 26  1  0  0  0
  1  3  2  0  0  0
  2  4  2  0  0  0
  5  8  2  0  0  0
  6  7  2  0  0  0
  9 16  2  0  0  0
 10 14  2  0  0  0
 11 12  2  0  0  0
 13 15  2  0  0  0
 17 24  2  0  0  0
 18 29  2  0  0  0
 27 30  2  0  0  0
 35 31  2  0  0  0
 35 32  2  0  0  0
M  CHG  2  27   1  28  -1
M  END
> <rmsd>
0.51300329

$$$$
ZINC12565606


 35 39  0  0  0  0  0  0  0  0999 V2000
   -6.6177    0.0924    8.6761 C   0  0  0  0  0
   -7.8387   -0.0618    8.0264 C   0  0  0  0  0
   -5.7463    1.1123    8.2928 C   0  0  0  0  0
   -8.1932    0.8032    6.9909 C   0  0  0  0  0
   -5.2220    3.0243    6.8534 C   0  0  0  0  0
    1.9981    0.9055    0.3189 C   0  0  0  0  0
    3.2484    0.3123    0.0912 C   0  0  0  0  0
   -5.5764    3.8895    5.8178 C   0  0  0  0  0
   -7.6688    2.7153    5.5514 C   0  0  0  0  0
    2.2182   -1.7574   -0.6944 C   0  0  0  0  0
   -6.0868    1.9922    7.2525 C   0  0  0  0  0
   -7.3285    1.8353    6.5918 C   0  0  0  0  0
    0.8501    0.1526    0.0341 C   0  0  0  0  0
    3.3536   -0.9927   -0.4053 C   0  0  0  0  0
    0.9984   -1.1363   -0.4565 C   0  0  0  0  0
   -6.7974    3.7352    5.1681 C   0  0  0  0  0
   -1.0793   -0.6446   -0.2664 C   0  0  0  0  0
   -4.8450    0.8832    0.3203 C   0  0  0  0  0
   -4.6360    3.2596    1.2039 C   0  0  0  0  0
   -6.8482    2.2663    0.7666 C   0  0  0  0  0
   -5.1191    3.7403    2.5690 C   0  0  0  0  0
   -7.3375    2.7403    2.1305 C   0  0  0  0  0
   -3.3396    0.8034    0.2878 C   0  0  0  0  0
   -0.4858    0.4523    0.1501 N   0  0  0  0  0
   -5.3963    2.0821    0.7690 N   0  0  0  0  0
   -6.5940    3.9760    2.5213 N   0  0  0  0  0
    4.6414   -1.5543   -0.6208 N   0  0  0  0  0
    5.6555   -0.8641   -0.3599 O   0  0  0  0  0
   -5.5089   -0.0922   -0.0397 O   0  0  0  0  0
    4.7266   -2.7238   -1.0654 O   0  0  0  0  0
   -8.6864    4.8367    3.7568 O   0  0  0  0  0
   -6.5014    6.0604    4.0323 O   0  0  0  0  0
   -0.2498   -1.6545   -0.6517 O   0  0  0  0  0
   -2.8391   -0.8134   -0.3280 S   0  0  0  0  0
   -7.2430    4.8302    3.8573 S   0  0  0  0  0
  1  2  1  0  0  0
  3 11  1  0  0  0
  4 12  1  0  0  0
  5 11  1  0  0  0
  6 13  1  0  0  0
  7 14  1  0  0  0
  8 16  1  0  0  0
  9 12  1  0  0  0
 10 15  1  0  0  0
 13 24  1  0  0  0
 14 27  1  0  0  0
 15 33  1  0  0  0
 17 33  1  0  0  0
 17 34  1  0  0  0
 18 25  1  0  0  0
 19 21  1  0  0  0
 19 25  1  0  0  0
 20 22  1  0  0  0
 20 25  1  0  0  0
 21 26  1  0  0  0
 22 26  1  0  0  0
 23 18  1  0  0  0
 23 34  1  0  0  0
 27 28  1  0  0  0
 35 16  1  0  0  0
 35 26  1  0  0  0
  1  3  2  0  0  0
  2  4  2  0  0  0
  5  8  2  0  0  0
  6  7  2  0  0  0
  9 16  2  0  0  0
 10 14  2  0  0  0
 11 12  2  0  0  0
 13 15  2  0  0  0
 17 24  2  0  0  0
 18 29  2  0  0  0
 27 30  2  0  0  0
 35 31  2  0  0  0
 35 32  2  0  0  0
M  CHG  2  27   1  28  -1
M  END
> <rmsd>
0.513003469

$$$$
