ZINC85627945


 12 11  0  0  0  0  0  0  0  0999 V2000
    2.7165   -0.0579   -0.4597 C   0  0  0  0  0
    0.2533   -0.3897   -2.5694 C   0  0  0  0  0
    0.9727    2.5973    0.5439 C   0  0  0  0  0
    3.0877   -0.1348    1.0198 C   0  0  0  0  0
    1.1132    0.7545   -2.1520 C   0  0  0  0  0
    0.6131    1.1864    0.2238 C   0  0  0  0  0
    4.4055   -2.3327    0.7685 C   0  0  0  0  0
    4.3951   -0.8981    1.3111 C   0  0  0  0  0
    5.5128   -0.1987    0.6617 N   0  0  0  0  0
    1.5298    0.6195   -0.7619 N   0  0  0  0  0
    3.3199   -3.1440    1.3653 N   0  0  0  0  0
    3.4465   -0.5584   -1.3190 O   0  0  0  0  0
  1 10  1  0  0  0
  2  5  1  0  0  0
  3  6  1  0  0  0
  4  1  1  0  0  0
  4  8  1  0  0  0
  5 10  1  0  0  0
  6 10  1  0  0  0
  7  8  1  0  0  0
  7 11  1  0  0  0
  8  9  1  0  0  0
  1 12  2  0  0  0
M  CHG  1  11   1
M  END
> <rmsd>
0.3236368

$$$$
ZINC06360557


 14 14  0  0  0  0  0  0  0  0999 V2000
    3.2643   -1.2584    0.7328 C   0  0  0  0  0
    3.8878   -0.8627    2.0386 C   0  0  0  0  0
    2.9456   -0.2654   -0.3121 C   0  0  0  0  0
    0.4524    2.4287   -0.2768 C   0  0  0  0  0
    0.7455    2.3059    1.2122 C   0  0  0  0  0
    1.6646    1.7677   -0.9133 C   0  0  0  0  0
    1.3939    0.9327    1.3221 C   0  0  0  0  0
    3.1112   -1.1797    3.2822 C   0  0  0  0  0
    2.9753   -2.4899    0.4531 N   0  0  0  0  0
    5.0501   -0.2979    1.9752 N   0  0  0  0  0
    2.0586    0.7347    0.0351 N   0  0  0  0  0
    3.4725   -0.3791   -1.4184 O   0  0  0  0  0
    3.3169   -3.3439    1.5050 O   0  0  0  0  0
    5.4670   -0.1854    0.6471 O   0  0  0  0  0
  1  2  1  0  0  0
  1  3  1  0  0  0
  3 11  1  0  0  0
  4  5  1  0  0  0
  4  6  1  0  0  0
  5  7  1  0  0  0
  6 11  1  0  0  0
  7 11  1  0  0  0
  8  2  1  0  0  0
  9 13  1  0  0  0
 10 14  1  0  0  0
  1  9  2  0  0  0
  2 10  2  0  0  0
  3 12  2  0  0  0
M  END
> <rmsd>
0.409921557

$$$$
ZINC92124617


 15 15  0  0  0  0  0  0  0  0999 V2000
    6.3356   -3.0374    2.2748 C   0  0  0  0  0
    5.0977   -3.6595    2.1132 C   0  0  0  0  0
    6.5483   -1.7612    1.7535 C   0  0  0  0  0
    4.2851   -1.7292    0.9088 C   0  0  0  0  0
    4.0724   -3.0054    1.4301 C   0  0  0  0  0
    5.5230   -1.1071    1.0705 C   0  0  0  0  0
    0.7769    2.3440    0.4060 C   0  0  0  0  0
    1.2811    1.2175   -0.1112 C   0  0  0  0  0
    3.1934   -1.0325    0.1806 C   0  0  0  0  0
    0.3238   -0.9747   -0.8339 C   0  0  0  0  0
    0.8758   -0.1593    0.3292 C   0  0  0  0  0
    2.0318   -0.8022    0.9037 N   0  0  0  0  0
    3.3594   -0.7226   -0.9961 O   0  0  0  0  0
    2.8702   -3.6314    1.2846 O   0  0  0  0  0
    5.7521    0.1398    0.5699 O   0  0  0  0  0
  1  2  1  0  0  0
  3  6  1  0  0  0
  4  5  1  0  0  0
  4  9  1  0  0  0
  5 14  1  0  0  0
  6 15  1  0  0  0
  9 12  1  0  0  0
 10 11  1  0  0  0
 11  8  1  0  0  0
 11 12  1  0  0  0
  1  3  2  0  0  0
  2  5  2  0  0  0
  4  6  2  0  0  0
  7  8  2  0  0  0
  9 13  2  0  0  0
M  END
> <rmsd>
0.371853262

$$$$
ZINC92107828


 15 15  0  0  0  0  0  0  0  0999 V2000
    6.3682   -3.1535    2.2160 C   0  0  0  0  0
    5.1060   -3.7294    2.0718 C   0  0  0  0  0
    6.6158   -1.8791    1.7060 C   0  0  0  0  0
    4.3389   -1.7563    0.9075 C   0  0  0  0  0
    4.0913   -3.0308    1.4175 C   0  0  0  0  0
    5.6011   -1.1805    1.0517 C   0  0  0  0  0
    3.2585   -1.0124    0.2100 C   0  0  0  0  0
   -0.0669    2.2034    0.0714 C   0  0  0  0  0
    0.9768   -0.0599    0.4158 C   0  0  0  0  0
    1.1268    1.4436    0.6342 C   0  0  0  0  0
    2.1231   -0.7520    0.9603 N   0  0  0  0  0
    3.4123   -0.6934   -0.9660 O   0  0  0  0  0
    2.8650   -3.6121    1.2887 O   0  0  0  0  0
    5.8645    0.0639    0.5617 O   0  0  0  0  0
    1.2074    1.6947    2.0360 O   0  0  0  0  0
  1  2  1  0  0  0
  3  6  1  0  0  0
  4  5  1  0  0  0
  4  7  1  0  0  0
  5 13  1  0  0  0
  6 14  1  0  0  0
  7 11  1  0  0  0
  8 10  1  0  0  0
  9 10  1  0  0  0
  9 11  1  0  0  0
 10 15  1  0  0  0
  1  3  2  0  0  0
  2  5  2  0  0  0
  4  6  2  0  0  0
  7 12  2  0  0  0
M  END
> <rmsd>
0.355847359

$$$$
ZINC92107828


 15 15  0  0  0  0  0  0  0  0999 V2000
    6.2850   -2.8899    2.4552 C   0  0  0  0  0
    5.0869   -3.5735    2.2488 C   0  0  0  0  0
    6.4738   -1.6276    1.8925 C   0  0  0  0  0
    4.2661   -1.7326    0.9167 C   0  0  0  0  0
    4.0774   -2.9948    1.4796 C   0  0  0  0  0
    5.4643   -1.0490    1.1231 C   0  0  0  0  0
    3.1913   -1.1164    0.0968 C   0  0  0  0  0
    1.2920    2.1150    0.3449 C   0  0  0  0  0
    0.8337   -0.3438    0.0721 C   0  0  0  0  0
    0.4118    0.9471    0.7694 C   0  0  0  0  0
    1.9823   -0.9110    0.7418 N   0  0  0  0  0
    3.4145   -0.8473   -1.0806 O   0  0  0  0  0
    2.9141   -3.6801    1.2914 O   0  0  0  0  0
    5.6695    0.1857    0.5833 O   0  0  0  0  0
   -0.9375    1.2390    0.4107 O   0  0  0  0  0
  1  2  1  0  0  0
  3  6  1  0  0  0
  4  5  1  0  0  0
  4  7  1  0  0  0
  5 13  1  0  0  0
  6 14  1  0  0  0
  7 11  1  0  0  0
  8 10  1  0  0  0
  9 10  1  0  0  0
  9 11  1  0  0  0
 10 15  1  0  0  0
  1  3  2  0  0  0
  2  5  2  0  0  0
  4  6  2  0  0  0
  7 12  2  0  0  0
M  END
> <rmsd>
0.413302362

$$$$
ZINC92107825


 15 15  0  0  0  0  0  0  0  0999 V2000
    6.2595   -3.1023    2.3703 C   0  0  0  0  0
    4.9924   -3.6582    2.1937 C   0  0  0  0  0
    6.5573   -1.8560    1.8192 C   0  0  0  0  0
    4.3210   -1.7216    0.9147 C   0  0  0  0  0
    4.0232   -2.9680    1.4659 C   0  0  0  0  0
    5.5881   -1.1657    1.0914 C   0  0  0  0  0
    3.2891   -0.9864    0.1389 C   0  0  0  0  0
   -0.4067    2.0886    0.2971 C   0  0  0  0  0
    1.0221    0.0197    0.2020 C   0  0  0  0  0
    0.7548    1.3345    0.9305 C   0  0  0  0  0
    2.1277   -0.6715    0.8259 N   0  0  0  0  0
    3.5016   -0.7211   -1.0413 O   0  0  0  0  0
    2.7913   -3.5293    1.3063 O   0  0  0  0  0
    5.9001    0.0511    0.5622 O   0  0  0  0  0
    1.9246    2.1466    0.8488 O   0  0  0  0  0
  1  2  1  0  0  0
  3  6  1  0  0  0
  4  5  1  0  0  0
  4  7  1  0  0  0
  5 13  1  0  0  0
  6 14  1  0  0  0
  7 11  1  0  0  0
  8 10  1  0  0  0
  9 10  1  0  0  0
  9 11  1  0  0  0
 10 15  1  0  0  0
  1  3  2  0  0  0
  2  5  2  0  0  0
  4  6  2  0  0  0
  7 12  2  0  0  0
M  END
> <rmsd>
0.495720834

$$$$
ZINC92103910


 16 16  0  0  0  0  0  0  0  0999 V2000
    0.6925    2.9104   -0.3520 C   0  0  0  0  0
    6.3966   -3.1041    2.0550 C   0  0  0  0  0
    5.1416   -3.6893    1.8875 C   0  0  0  0  0
    6.6172   -1.7937    1.6311 C   0  0  0  0  0
    4.3279   -1.6537    0.8720 C   0  0  0  0  0
    4.1072   -2.9642    1.2960 C   0  0  0  0  0
    5.5829   -1.0685    1.0397 C   0  0  0  0  0
    3.2466   -0.8955    0.2529 C   0  0  0  0  0
    2.5626   -0.0780    2.5193 C   0  0  0  0  0
    1.7795    2.0822    0.1912 C   0  0  0  0  0
    1.3072    0.6720    0.5293 C   0  0  0  0  0
   -0.1636    3.5656   -0.7809 N   0  0  0  0  0
    2.4026   -0.1279    1.0728 N   0  0  0  0  0
    3.1484   -0.9679   -0.9773 O   0  0  0  0  0
    2.8884   -3.5553    1.1429 O   0  0  0  0  0
    5.8200    0.2109    0.6334 O   0  0  0  0  0
  2  3  1  0  0  0
  4  7  1  0  0  0
  5  6  1  0  0  0
  5  8  1  0  0  0
  6 15  1  0  0  0
  7 16  1  0  0  0
  8 13  1  0  0  0
  9 13  1  0  0  0
 10  1  1  0  0  0
 10 11  1  0  0  0
 11 13  1  0  0  0
  2  4  2  0  0  0
  3  6  2  0  0  0
  5  7  2  0  0  0
  8 14  2  0  0  0
  1 12  3  0  0  0
M  END
> <rmsd>
0.481048018

$$$$
ZINC83251304


 16 16  0  0  0  0  0  0  0  0999 V2000
    0.6987    2.6707   -0.7005 C   0  0  0  0  0
   -0.6063    2.6369   -0.2093 C   0  0  0  0  0
    1.6112    1.6849   -0.3247 C   0  0  0  0  0
   -0.9990    1.6173    0.6578 C   0  0  0  0  0
    1.2186    0.6653    0.5425 C   0  0  0  0  0
   -0.0865    0.6314    1.0337 C   0  0  0  0  0
    3.9905   -1.8498    0.8955 C   0  0  0  0  0
    3.2140   -0.7901    0.1632 C   0  0  0  0  0
   -2.3346   -1.6687    2.6608 C   0  0  0  0  0
   -1.5704   -1.1800    1.4489 C   0  0  0  0  0
    5.2345   -1.5503    1.0974 N   0  0  0  0  0
    3.2894   -2.9726    1.2517 N   0  0  0  0  0
    2.1439   -0.3144    0.9103 N   0  0  0  0  0
    3.6056   -0.4901   -0.9520 O   0  0  0  0  0
    5.5102   -0.2892    0.5612 O   0  0  0  0  0
   -0.4904   -0.3560    1.8822 O   0  0  0  0  0
  1  2  1  0  0  0
  3  5  1  0  0  0
  4  6  1  0  0  0
  5 13  1  0  0  0
  6 16  1  0  0  0
  7  8  1  0  0  0
  7 12  1  0  0  0
  8 13  1  0  0  0
  9 10  1  0  0  0
 10 16  1  0  0  0
 11 15  1  0  0  0
  1  3  2  0  0  0
  2  4  2  0  0  0
  5  6  2  0  0  0
  7 11  2  0  0  0
  8 14  2  0  0  0
M  END
> <rmsd>
0.425113976

$$$$
ZINC92103452


 16 16  0  0  0  0  0  0  0  0999 V2000
    6.3535   -3.0525    2.2449 C   0  0  0  0  0
    5.1142   -3.6736    2.0898 C   0  0  0  0  0
    6.5614   -1.7725    1.7311 C   0  0  0  0  0
    4.2906   -1.7347    0.9069 C   0  0  0  0  0
    4.0828   -3.0147    1.4207 C   0  0  0  0  0
    5.5299   -1.1136    1.0621 C   0  0  0  0  0
    3.1924   -1.0329    0.1938 C   0  0  0  0  0
    0.0106    2.0459   -0.6504 C   0  0  0  0  0
    1.8493    2.0849    1.0530 C   0  0  0  0  0
    0.3181   -1.0285   -0.7566 C   0  0  0  0  0
    1.2097    1.2790   -0.0836 C   0  0  0  0  0
    0.8761   -0.1613    0.3694 C   0  0  0  0  0
    2.0430   -0.8112    0.9315 N   0  0  0  0  0
    3.3479   -0.7142   -0.9822 O   0  0  0  0  0
    2.8795   -3.6398    1.2814 O   0  0  0  0  0
    5.7543    0.1371    0.5686 O   0  0  0  0  0
  1  2  1  0  0  0
  3  6  1  0  0  0
  4  5  1  0  0  0
  4  7  1  0  0  0
  5 15  1  0  0  0
  6 16  1  0  0  0
  7 13  1  0  0  0
  8 11  1  0  0  0
  9 11  1  0  0  0
 10 12  1  0  0  0
 11 12  1  0  0  0
 12 13  1  0  0  0
  1  3  2  0  0  0
  2  5  2  0  0  0
  4  6  2  0  0  0
  7 14  2  0  0  0
M  END
> <rmsd>
0.366531014

$$$$
ZINC12375640


 16 16  0  0  0  0  0  0  0  0999 V2000
    0.7161    2.6687   -0.7043 C   0  0  0  0  0
   -0.5912    2.6450   -0.2187 C   0  0  0  0  0
    1.6203    1.6777   -0.3222 C   0  0  0  0  0
   -0.9945    1.6301    0.6491 C   0  0  0  0  0
    1.2170    0.6628    0.5456 C   0  0  0  0  0
   -0.0904    0.6390    1.0313 C   0  0  0  0  0
    3.9909   -1.8503    0.8956 C   0  0  0  0  0
    3.2132   -0.7908    0.1645 C   0  0  0  0  0
    5.2348   -1.5502    1.0971 N   0  0  0  0  0
    3.2907   -2.9738    1.2516 N   0  0  0  0  0
    2.1442   -0.3175    0.9127 N   0  0  0  0  0
   -0.5281   -0.3850    1.9177 N   0  0  0  0  0
   -1.7124   -0.3647    2.3272 O   0  0  0  0  0
    3.6041   -0.4897   -0.9508 O   0  0  0  0  0
    0.2839   -1.2756    2.2610 O   0  0  0  0  0
    5.5093   -0.2884    0.5615 O   0  0  0  0  0
  1  2  1  0  0  0
  3  5  1  0  0  0
  4  6  1  0  0  0
  5 11  1  0  0  0
  6 12  1  0  0  0
  7  8  1  0  0  0
  7 10  1  0  0  0
  8 11  1  0  0  0
  9 16  1  0  0  0
 12 13  1  0  0  0
  1  3  2  0  0  0
  2  4  2  0  0  0
  5  6  2  0  0  0
  7  9  2  0  0  0
  8 14  2  0  0  0
 12 15  2  0  0  0
M  CHG  2  12   1  13  -1
M  END
> <rmsd>
0.42335549

$$$$
ZINC92125434


 16 16  0  0  0  0  0  0  0  0999 V2000
    6.3737   -3.1772    2.1908 C   0  0  0  0  0
    5.1063   -3.7431    2.0531 C   0  0  0  0  0
    6.6266   -1.9015    1.6861 C   0  0  0  0  0
    4.3445   -1.7579    0.9061 C   0  0  0  0  0
    4.0916   -3.0334    1.4108 C   0  0  0  0  0
    5.6119   -1.1919    1.0438 C   0  0  0  0  0
    3.2642   -1.0021    0.2213 C   0  0  0  0  0
   -0.1617    2.1898    0.0449 C   0  0  0  0  0
    0.9911   -0.0342    0.4504 C   0  0  0  0  0
    1.2754    1.8661    2.1040 C   0  0  0  0  0
    1.0669    1.4873    0.6328 C   0  0  0  0  0
    2.1301   -0.7338    0.9790 N   0  0  0  0  0
    3.4112   -0.6775   -0.9541 O   0  0  0  0  0
    2.8603   -3.6051    1.2882 O   0  0  0  0  0
    5.8804    0.0533    0.5589 O   0  0  0  0  0
    1.4661    3.2710    2.2174 O   0  0  0  0  0
  1  2  1  0  0  0
  3  6  1  0  0  0
  4  5  1  0  0  0
  4  7  1  0  0  0
  5 14  1  0  0  0
  6 15  1  0  0  0
  7 12  1  0  0  0
  8 11  1  0  0  0
  9 11  1  0  0  0
  9 12  1  0  0  0
 10 11  1  0  0  0
 10 16  1  0  0  0
  1  3  2  0  0  0
  2  5  2  0  0  0
  4  6  2  0  0  0
  7 13  2  0  0  0
M  END
> <rmsd>
0.395426631

$$$$
ZINC92125433


 16 16  0  0  0  0  0  0  0  0999 V2000
    6.2091   -2.8168    2.5621 C   0  0  0  0  0
    5.0221   -3.5120    2.3316 C   0  0  0  0  0
    6.4126   -1.5693    1.9718 C   0  0  0  0  0
    4.2422   -1.7126    0.9204 C   0  0  0  0  0
    4.0386   -2.9600    1.5108 C   0  0  0  0  0
    5.4292   -1.0174    1.1510 C   0  0  0  0  0
    3.1950   -1.1249    0.0457 C   0  0  0  0  0
    1.3935    2.0399    0.4962 C   0  0  0  0  0
    0.8367   -0.3655   -0.0852 C   0  0  0  0  0
   -0.2858    0.7619    1.8934 C   0  0  0  0  0
    0.3116    0.9546    0.4943 C   0  0  0  0  0
    1.9564   -0.9051    0.6369 N   0  0  0  0  0
    3.4594   -0.8870   -1.1299 O   0  0  0  0  0
    2.8858   -3.6563    1.2999 O   0  0  0  0  0
    5.6484    0.2031    0.5849 O   0  0  0  0  0
   -0.8715    1.9789    2.3390 O   0  0  0  0  0
  1  2  1  0  0  0
  3  6  1  0  0  0
  4  5  1  0  0  0
  4  7  1  0  0  0
  5 14  1  0  0  0
  6 15  1  0  0  0
  7 12  1  0  0  0
  8 11  1  0  0  0
  9 11  1  0  0  0
  9 12  1  0  0  0
 10 11  1  0  0  0
 10 16  1  0  0  0
  1  3  2  0  0  0
  2  5  2  0  0  0
  4  6  2  0  0  0
  7 13  2  0  0  0
M  END
> <rmsd>
0.479162574

$$$$
ZINC92121098


 16 16  0  0  0  0  0  0  0  0999 V2000
    6.2874   -3.1971    2.1377 C   0  0  0  0  0
    4.9992   -3.7188    2.0188 C   0  0  0  0  0
    6.5748   -1.9277    1.6361 C   0  0  0  0  0
    4.2859   -1.7016    0.8967 C   0  0  0  0  0
    3.9985   -2.9711    1.3984 C   0  0  0  0  0
    5.5740   -1.1799    1.0156 C   0  0  0  0  0
    3.2397   -0.9199    0.2473 C   0  0  0  0  0
    2.1208   -0.4048    2.4279 C   0  0  0  0  0
    0.7896   -0.3888    0.3478 C   0  0  0  0  0
    0.6065    1.0583   -0.0593 C   0  0  0  0  0
    2.0912   -0.5830    0.9830 N   0  0  0  0  0
    3.4401   -0.5867   -0.9263 O   0  0  0  0  0
    2.7464   -3.4999    1.2939 O   0  0  0  0  0
    5.8765    0.0585    0.5333 O   0  0  0  0  0
    0.6274    1.8539    1.0391 F   0  0  0  0  0
   -0.6201    1.2099   -0.6213 F   0  0  0  0  0
  1  2  1  0  0  0
  3  6  1  0  0  0
  4  5  1  0  0  0
  4  7  1  0  0  0
  5 13  1  0  0  0
  6 14  1  0  0  0
  7 11  1  0  0  0
  8 11  1  0  0  0
  9 10  1  0  0  0
  9 11  1  0  0  0
 10 15  1  0  0  0
 10 16  1  0  0  0
  1  3  2  0  0  0
  2  5  2  0  0  0
  4  6  2  0  0  0
  7 12  2  0  0  0
M  END
> <rmsd>
0.497207403

$$$$
ZINC92123913


 17 18  0  0  0  0  0  0  0  0999 V2000
    6.3284   -2.9548    2.3987 C   0  0  0  0  0
    5.1178   -3.6204    2.2064 C   0  0  0  0  0
    6.5225   -1.6874    1.8495 C   0  0  0  0  0
    1.4347    1.9881    1.2637 C   0  0  0  0  0
    1.1736    3.2686    0.8535 C   0  0  0  0  0
    4.2952   -1.7511    0.9155 C   0  0  0  0  0
    4.1012   -3.0185    1.4648 C   0  0  0  0  0
    5.5059   -1.0856    1.1079 C   0  0  0  0  0
    0.8808    1.1919    0.2464 C   0  0  0  0  0
    3.2326   -1.1219    0.1394 C   0  0  0  0  0
    0.8656   -0.3067    0.1569 C   0  0  0  0  0
    0.3190    1.9227   -0.7206 N   0  0  0  0  0
    2.0190   -0.8985    0.7960 N   0  0  0  0  0
    3.4167   -0.8278   -1.0528 O   0  0  0  0  0
    0.5081    3.2427   -0.3295 O   0  0  0  0  0
    2.9257   -3.6865    1.2901 O   0  0  0  0  0
    5.7163    0.1537    0.5808 O   0  0  0  0  0
  1  2  1  0  0  0
  3  8  1  0  0  0
  4  9  1  0  0  0
  5 15  1  0  0  0
  6  7  1  0  0  0
  6 10  1  0  0  0
  7 16  1  0  0  0
  8 17  1  0  0  0
 10 13  1  0  0  0
 11  9  1  0  0  0
 11 13  1  0  0  0
 12 15  1  0  0  0
  1  3  2  0  0  0
  2  7  2  0  0  0
  4  5  2  0  0  0
  6  8  2  0  0  0
  9 12  2  0  0  0
 10 14  2  0  0  0
M  END
> <rmsd>
0.258203059

$$$$
ZINC92123913


 17 18  0  0  0  0  0  0  0  0999 V2000
    6.3100   -2.9339    2.4286 C   0  0  0  0  0
    5.1032   -3.6042    2.2294 C   0  0  0  0  0
    6.5061   -1.6700    1.8718 C   0  0  0  0  0
    0.3425    2.0959   -0.7346 C   0  0  0  0  0
    0.6201    3.3179   -0.1815 C   0  0  0  0  0
    4.2883   -1.7469    0.9165 C   0  0  0  0  0
    4.0923   -3.0107    1.4734 C   0  0  0  0  0
    5.4952   -1.0766    1.1157 C   0  0  0  0  0
    0.8727    1.1815    0.1920 C   0  0  0  0  0
    3.2317   -1.1265    0.1253 C   0  0  0  0  0
    0.8624   -0.3178    0.1135 C   0  0  0  0  0
    1.4359    1.7899    1.2396 N   0  0  0  0  0
    2.0111   -0.9015    0.7684 N   0  0  0  0  0
    3.4266   -0.8407   -1.0672 O   0  0  0  0  0
    1.2724    3.1484    0.9969 O   0  0  0  0  0
    2.9204   -3.6832    1.2922 O   0  0  0  0  0
    5.7075    0.1593    0.5815 O   0  0  0  0  0
  1  2  1  0  0  0
  3  8  1  0  0  0
  4  9  1  0  0  0
  5 15  1  0  0  0
  6  7  1  0  0  0
  6 10  1  0  0  0
  7 16  1  0  0  0
  8 17  1  0  0  0
 10 13  1  0  0  0
 11  9  1  0  0  0
 11 13  1  0  0  0
 12 15  1  0  0  0
  1  3  2  0  0  0
  2  7  2  0  0  0
  4  5  2  0  0  0
  6  8  2  0  0  0
  9 12  2  0  0  0
 10 14  2  0  0  0
M  END
> <rmsd>
0.274288863

$$$$
ZINC92124107


 17 17  0  0  0  0  0  0  0  0999 V2000
    0.6927    2.9109   -0.3513 C   0  0  0  0  0
    6.3964   -3.1044    2.0544 C   0  0  0  0  0
    5.1413   -3.6895    1.8870 C   0  0  0  0  0
    6.6171   -1.7939    1.6307 C   0  0  0  0  0
    4.3277   -1.6537    0.8718 C   0  0  0  0  0
    4.1070   -2.9642    1.2956 C   0  0  0  0  0
    5.5827   -1.0686    1.0394 C   0  0  0  0  0
    3.2464   -0.8953    0.2529 C   0  0  0  0  0
    1.7632   -1.1451    3.1862 C   0  0  0  0  0
    1.7795    2.0826    0.1918 C   0  0  0  0  0
    2.5627   -0.0780    2.5194 C   0  0  0  0  0
    1.3072    0.6725    0.5297 C   0  0  0  0  0
   -0.1635    3.5663   -0.7800 N   0  0  0  0  0
    2.4025   -0.1277    1.0730 N   0  0  0  0  0
    3.1480   -0.9675   -0.9773 O   0  0  0  0  0
    2.8881   -3.5552    1.1427 O   0  0  0  0  0
    5.8200    0.2109    0.6334 O   0  0  0  0  0
  2  3  1  0  0  0
  4  7  1  0  0  0
  5  6  1  0  0  0
  5  8  1  0  0  0
  6 16  1  0  0  0
  7 17  1  0  0  0
  8 14  1  0  0  0
  9 11  1  0  0  0
 10  1  1  0  0  0
 10 12  1  0  0  0
 11 14  1  0  0  0
 12 14  1  0  0  0
  2  4  2  0  0  0
  3  6  2  0  0  0
  5  7  2  0  0  0
  8 15  2  0  0  0
  1 13  3  0  0  0
M  END
> <rmsd>
0.480874449

$$$$
ZINC92126247


 17 18  0  0  0  0  0  0  0  0999 V2000
    6.3663   -3.0070    2.3008 C   0  0  0  0  0
    5.1447   -3.6581    2.1309 C   0  0  0  0  0
    6.5544   -1.7286    1.7756 C   0  0  0  0  0
    4.2988   -1.7525    0.9102 C   0  0  0  0  0
    4.1108   -3.0308    1.4355 C   0  0  0  0  0
    5.5206   -1.1013    1.0802 C   0  0  0  0  0
    3.1981   -1.0845    0.1690 C   0  0  0  0  0
    0.9672    3.2241    0.1929 C   0  0  0  0  0
    0.0241    2.1242   -0.3368 C   0  0  0  0  0
    1.7543    2.1058    0.9071 C   0  0  0  0  0
    1.2062    1.1343   -0.1702 C   0  0  0  0  0
    0.3779   -1.1439   -0.8573 C   0  0  0  0  0
    0.8593   -0.2655    0.2919 C   0  0  0  0  0
    2.0599   -0.8968    0.8979 N   0  0  0  0  0
    3.3679   -0.7759   -1.0077 O   0  0  0  0  0
    2.9247   -3.6850    1.2820 O   0  0  0  0  0
    5.7255    0.1483    0.5759 O   0  0  0  0  0
  1  2  1  0  0  0
  3  6  1  0  0  0
  4  5  1  0  0  0
  4  7  1  0  0  0
  5 16  1  0  0  0
  6 17  1  0  0  0
  7 14  1  0  0  0
  8  9  1  0  0  0
  8 10  1  0  0  0
  9 11  1  0  0  0
 10 11  1  0  0  0
 11 13  1  0  0  0
 12 13  1  0  0  0
 13 14  1  0  0  0
  1  3  2  0  0  0
  2  5  2  0  0  0
  4  6  2  0  0  0
  7 15  2  0  0  0
M  END
> <rmsd>
0.293975502

$$$$
ZINC92124121


 17 18  0  0  0  0  0  0  0  0999 V2000
    6.3939   -3.0817    2.1817 C   0  0  0  0  0
    5.1534   -3.7035    2.0402 C   0  0  0  0  0
    6.5890   -1.7932    1.6844 C   0  0  0  0  0
    4.3030   -1.7484    0.9037 C   0  0  0  0  0
    4.1080   -3.0369    1.4012 C   0  0  0  0  0
    5.5436   -1.1265    1.0453 C   0  0  0  0  0
    3.1899   -1.0386    0.2224 C   0  0  0  0  0
    1.7991    2.1260   -0.2700 C   0  0  0  0  0
    0.3017    2.2123   -0.3472 C   0  0  0  0  0
    0.9501    1.3103    0.6768 C   0  0  0  0  0
    2.2537    1.7142    2.7712 C   0  0  0  0  0
    0.9001    1.7312    2.1198 C   0  0  0  0  0
    0.8755   -0.1754    0.4554 C   0  0  0  0  0
    2.0403   -0.8235    0.9789 N   0  0  0  0  0
    3.3226   -0.7011   -0.9511 O   0  0  0  0  0
    2.9037   -3.6630    1.2746 O   0  0  0  0  0
    5.7558    0.1322    0.5674 O   0  0  0  0  0
  1  2  1  0  0  0
  3  6  1  0  0  0
  4  5  1  0  0  0
  4  7  1  0  0  0
  5 16  1  0  0  0
  6 17  1  0  0  0
  7 14  1  0  0  0
  8  9  1  0  0  0
  8 10  1  0  0  0
  9 10  1  0  0  0
 10 12  1  0  0  0
 10 13  1  0  0  0
 11 12  1  0  0  0
 13 14  1  0  0  0
  1  3  2  0  0  0
  2  5  2  0  0  0
  4  6  2  0  0  0
  7 15  2  0  0  0
M  END
> <rmsd>
0.354957402

$$$$
ZINC92122539


 17 17  0  0  0  0  0  0  0  0999 V2000
    6.4491   -3.0831    2.0742 C   0  0  0  0  0
    5.2106   -3.7005    1.8996 C   0  0  0  0  0
    6.6392   -1.7684    1.6488 C   0  0  0  0  0
    4.3523   -1.6884    0.8737 C   0  0  0  0  0
    4.1622   -3.0031    1.2992 C   0  0  0  0  0
    5.5908   -1.0710    1.0486 C   0  0  0  0  0
    0.7877    4.8633   -1.6106 C   0  0  0  0  0
    0.8831    4.2786   -0.4113 C   0  0  0  0  0
    3.2466   -0.9528    0.2399 C   0  0  0  0  0
    2.6572   -0.2393    2.5241 C   0  0  0  0  0
    0.4695    2.8635   -0.1317 C   0  0  0  0  0
    1.6577    2.0239    0.3477 C   0  0  0  0  0
    1.2689    0.5808    0.6537 C   0  0  0  0  0
    2.3892   -0.2098    1.0821 N   0  0  0  0  0
    3.1670   -1.0388   -0.9850 O   0  0  0  0  0
    2.9599   -3.6255    1.1393 O   0  0  0  0  0
    5.7981    0.2131    0.6409 O   0  0  0  0  0
  1  2  1  0  0  0
  3  6  1  0  0  0
  4  5  1  0  0  0
  4  9  1  0  0  0
  5 16  1  0  0  0
  6 17  1  0  0  0
  9 14  1  0  0  0
 10 14  1  0  0  0
 11  8  1  0  0  0
 11 12  1  0  0  0
 12 13  1  0  0  0
 13 14  1  0  0  0
  1  3  2  0  0  0
  2  5  2  0  0  0
  4  6  2  0  0  0
  7  8  2  0  0  0
  9 15  2  0  0  0
M  END
> <rmsd>
0.407080263

$$$$
ZINC92106215


 17 17  0  0  0  0  0  0  0  0999 V2000
    6.2846   -3.1886    2.2094 C   0  0  0  0  0
    4.9993   -3.7134    2.0746 C   0  0  0  0  0
    6.5814   -1.9284    1.6900 C   0  0  0  0  0
    4.3076   -1.7181    0.9011 C   0  0  0  0  0
    4.0108   -2.9782    1.4205 C   0  0  0  0  0
    5.5928   -1.1932    1.0359 C   0  0  0  0  0
   -0.3049    1.7738    0.1874 C   0  0  0  0  0
    3.2650   -0.9425    0.2105 C   0  0  0  0  0
    0.7141    1.0082   -0.2328 C   0  0  0  0  0
    1.7400    1.5305   -1.1981 C   0  0  0  0  0
    2.3348    1.0476    2.7107 C   0  0  0  0  0
    0.8564   -0.4200    0.2101 C   0  0  0  0  0
    2.0567   -0.3764    2.3680 C   0  0  0  0  0
    2.0969   -0.5895    0.9141 N   0  0  0  0  0
    3.4986   -0.6363   -0.9581 O   0  0  0  0  0
    2.7613   -3.5099    1.3009 O   0  0  0  0  0
    5.9042    0.0364    0.5369 O   0  0  0  0  0
  1  2  1  0  0  0
  3  6  1  0  0  0
  4  5  1  0  0  0
  4  8  1  0  0  0
  5 16  1  0  0  0
  6 17  1  0  0  0
  8 14  1  0  0  0
 10  9  1  0  0  0
 11 13  1  0  0  0
 12  9  1  0  0  0
 12 14  1  0  0  0
 13 14  1  0  0  0
  1  3  2  0  0  0
  2  5  2  0  0  0
  4  6  2  0  0  0
  7  9  2  0  0  0
  8 15  2  0  0  0
M  END
> <rmsd>
0.505433321

$$$$
ZINC92124141


 17 18  0  0  0  0  0  0  0  0999 V2000
    6.2355   -2.8370    2.5257 C   0  0  0  0  0
    5.0462   -3.5309    2.3032 C   0  0  0  0  0
    6.4310   -1.5838    1.9451 C   0  0  0  0  0
    4.2479   -1.7187    0.9189 C   0  0  0  0  0
    4.0524   -2.9719    1.4997 C   0  0  0  0  0
    5.4372   -1.0248    1.1417 C   0  0  0  0  0
    3.1899   -1.1234    0.0627 C   0  0  0  0  0
   -1.2723    1.7047    1.7763 C   0  0  0  0  0
   -1.0693    1.3607    0.2880 C   0  0  0  0  0
   -0.0986    0.7611    2.1027 C   0  0  0  0  0
    0.3881    0.9350    0.6338 C   0  0  0  0  0
    1.4258    2.0417    0.4444 C   0  0  0  0  0
    0.8297   -0.3641   -0.0318 C   0  0  0  0  0
    1.9475   -0.9047    0.6643 N   0  0  0  0  0
    3.4397   -0.8742   -1.1137 O   0  0  0  0  0
    2.8975   -3.6670    1.2963 O   0  0  0  0  0
    5.6487    0.2011    0.5847 O   0  0  0  0  0
  1  2  1  0  0  0
  3  6  1  0  0  0
  4  5  1  0  0  0
  4  7  1  0  0  0
  5 16  1  0  0  0
  6 17  1  0  0  0
  7 14  1  0  0  0
  8  9  1  0  0  0
  8 10  1  0  0  0
  9 11  1  0  0  0
 10 11  1  0  0  0
 11 12  1  0  0  0
 11 13  1  0  0  0
 13 14  1  0  0  0
  1  3  2  0  0  0
  2  5  2  0  0  0
  4  6  2  0  0  0
  7 15  2  0  0  0
M  END
> <rmsd>
0.4827241

$$$$
ZINC92121836


 17 18  0  0  0  0  0  0  0  0999 V2000
    6.3977   -2.9338    2.3797 C   0  0  0  0  0
    5.2095   -3.6388    2.1880 C   0  0  0  0  0
    6.5457   -1.6564    1.8391 C   0  0  0  0  0
    4.3174   -1.7894    0.9149 C   0  0  0  0  0
    4.1694   -3.0667    1.4557 C   0  0  0  0  0
    5.5055   -1.0843    1.1067 C   0  0  0  0  0
    3.2099   -1.1801    0.1344 C   0  0  0  0  0
    0.8652    2.8879   -0.6655 C   0  0  0  0  0
    0.7136    3.4262    0.7299 C   0  0  0  0  0
    1.2367    2.0330    0.5145 C   0  0  0  0  0
   -0.2821   -1.4952    0.1749 C   0  0  0  0  0
    0.3834    0.8272    0.8867 C   0  0  0  0  0
    0.8365   -0.4585    0.1829 C   0  0  0  0  0
    2.0120   -1.0137    0.8121 N   0  0  0  0  0
    3.3982   -0.8822   -1.0422 O   0  0  0  0  0
    3.0166   -3.7731    1.2815 O   0  0  0  0  0
    5.6710    0.1653    0.5880 O   0  0  0  0  0
  1  2  1  0  0  0
  3  6  1  0  0  0
  4  5  1  0  0  0
  4  7  1  0  0  0
  5 16  1  0  0  0
  6 17  1  0  0  0
  7 14  1  0  0  0
  8  9  1  0  0  0
  8 10  1  0  0  0
  9 10  1  0  0  0
 10 12  1  0  0  0
 11 13  1  0  0  0
 12 13  1  0  0  0
 13 14  1  0  0  0
  1  3  2  0  0  0
  2  5  2  0  0  0
  4  6  2  0  0  0
  7 15  2  0  0  0
M  END
> <rmsd>
0.371756166

$$$$
ZINC83251301


 17 17  0  0  0  0  0  0  0  0999 V2000
   -0.5980    2.6404   -0.2169 C   0  0  0  0  0
    0.7091    2.6696   -0.7027 C   0  0  0  0  0
   -0.9973    1.6235    0.6504 C   0  0  0  0  0
    1.6171    1.6818   -0.3214 C   0  0  0  0  0
   -0.0893    0.6356    1.0317 C   0  0  0  0  0
    1.2179    0.6648    0.5458 C   0  0  0  0  0
   -0.5386   -0.4129    1.9391 C   0  0  0  0  0
    3.9907   -1.8497    0.8958 C   0  0  0  0  0
    3.2134   -0.7899    0.1646 C   0  0  0  0  0
   -1.4300   -0.8289    4.1097 C   0  0  0  0  0
    5.2347   -1.5500    1.0972 N   0  0  0  0  0
    3.2901   -2.9729    1.2517 N   0  0  0  0  0
    2.1442   -0.3154    0.9127 N   0  0  0  0  0
   -0.5351   -1.6189    1.6670 O   0  0  0  0  0
    3.6042   -0.4891   -0.9507 O   0  0  0  0  0
    5.5097   -0.2885    0.5614 O   0  0  0  0  0
   -0.9636    0.1055    3.1304 O   0  0  0  0  0
  1  2  1  0  0  0
  3  5  1  0  0  0
  4  6  1  0  0  0
  5  7  1  0  0  0
  6 13  1  0  0  0
  7 17  1  0  0  0
  8  9  1  0  0  0
  8 12  1  0  0  0
  9 13  1  0  0  0
 10 17  1  0  0  0
 11 16  1  0  0  0
  1  3  2  0  0  0
  2  4  2  0  0  0
  5  6  2  0  0  0
  7 14  2  0  0  0
  8 11  2  0  0  0
  9 15  2  0  0  0
M  END
> <rmsd>
0.424588829

$$$$
ZINC92124839


 17 18  0  0  0  0  0  0  0  0999 V2000
    6.3902   -3.0917    2.1845 C   0  0  0  0  0
    5.1465   -3.7071    2.0432 C   0  0  0  0  0
    6.5922   -1.8046    1.6860 C   0  0  0  0  0
    4.3067   -1.7487    0.9045 C   0  0  0  0  0
    4.1048   -3.0357    1.4032 C   0  0  0  0  0
    5.5506   -1.1332    1.0459 C   0  0  0  0  0
    3.1976   -1.0336    0.2223 C   0  0  0  0  0
    0.1120    2.2204   -0.1915 C   0  0  0  0  0
    1.5969    2.1706   -0.4119 C   0  0  0  0  0
    0.9701    1.3274    0.6738 C   0  0  0  0  0
    0.8876   -0.1581    0.4538 C   0  0  0  0  0
    1.1964    1.7367    2.1032 C   0  0  0  0  0
    2.0489   -0.8118    0.9782 N   0  0  0  0  0
    3.3323   -0.6979   -0.9515 O   0  0  0  0  0
    2.8973   -3.6555    1.2768 O   0  0  0  0  0
    5.7694    0.1240    0.5670 O   0  0  0  0  0
    0.0575    1.3858    2.8808 O   0  0  0  0  0
  1  2  1  0  0  0
  3  6  1  0  0  0
  4  5  1  0  0  0
  4  7  1  0  0  0
  5 15  1  0  0  0
  6 16  1  0  0  0
  7 13  1  0  0  0
  8  9  1  0  0  0
  8 10  1  0  0  0
  9 10  1  0  0  0
 10 11  1  0  0  0
 10 12  1  0  0  0
 11 13  1  0  0  0
 12 17  1  0  0  0
  1  3  2  0  0  0
  2  5  2  0  0  0
  4  6  2  0  0  0
  7 14  2  0  0  0
M  END
> <rmsd>
0.318438143

$$$$
ZINC92121176


 17 17  0  0  0  0  0  0  0  0999 V2000
    6.3899   -2.9427    2.3167 C   0  0  0  0  0
    5.1930   -3.6366    2.1392 C   0  0  0  0  0
    6.5362   -1.6588    1.7913 C   0  0  0  0  0
    4.2889   -1.7629    0.9106 C   0  0  0  0  0
    4.1425   -3.0467    1.4361 C   0  0  0  0  0
    5.4859   -1.0689    1.0882 C   0  0  0  0  0
    3.1705   -1.1348    0.1612 C   0  0  0  0  0
   -1.0741   -0.4106    2.7066 C   0  0  0  0  0
    1.6599    2.4366   -0.5762 C   0  0  0  0  0
   -0.0158    0.6565    2.4658 C   0  0  0  0  0
    1.3236    2.0514    0.8575 C   0  0  0  0  0
    0.8039   -0.3970    0.2679 C   0  0  0  0  0
    0.3205    0.8814    0.9742 C   0  0  0  0  0
    1.9818   -0.9667    0.8623 N   0  0  0  0  0
    3.3373   -0.8215   -1.0147 O   0  0  0  0  0
    2.9813   -3.7425    1.2752 O   0  0  0  0  0
    5.6500    0.1867    0.5839 O   0  0  0  0  0
  1  2  1  0  0  0
  3  6  1  0  0  0
  4  5  1  0  0  0
  4  7  1  0  0  0
  5 16  1  0  0  0
  6 17  1  0  0  0
  7 14  1  0  0  0
  8 10  1  0  0  0
  9 11  1  0  0  0
 10 13  1  0  0  0
 11 13  1  0  0  0
 12 13  1  0  0  0
 12 14  1  0  0  0
  1  3  2  0  0  0
  2  5  2  0  0  0
  4  6  2  0  0  0
  7 15  2  0  0  0
M  END
> <rmsd>
0.48375234

$$$$
ZINC92121176


 17 17  0  0  0  0  0  0  0  0999 V2000
    6.4525   -3.2892    1.9867 C   0  0  0  0  0
    5.1709   -3.8323    1.8960 C   0  0  0  0  0
    6.6946   -1.9931    1.5314 C   0  0  0  0  0
    4.3736   -1.7833    0.8945 C   0  0  0  0  0
    4.1315   -3.0794    1.3498 C   0  0  0  0  0
    5.6552   -1.2402    0.9853 C   0  0  0  0  0
    3.2668   -0.9813    0.3122 C   0  0  0  0  0
   -0.4721    2.1194   -0.9354 C   0  0  0  0  0
    0.3703    1.4135    3.4286 C   0  0  0  0  0
   -0.1186    2.2966    0.5345 C   0  0  0  0  0
    1.4496    1.8562    2.4510 C   0  0  0  0  0
    1.0255    0.0012    0.7214 C   0  0  0  0  0
    1.1390    1.5142    0.9762 C   0  0  0  0  0
    2.1824   -0.7375    1.1472 N   0  0  0  0  0
    3.3502   -0.6003   -0.8524 O   0  0  0  0  0
    2.8866   -3.6293    1.2716 O   0  0  0  0  0
    5.9137    0.0244    0.5473 O   0  0  0  0  0
  1  2  1  0  0  0
  3  6  1  0  0  0
  4  5  1  0  0  0
  4  7  1  0  0  0
  5 16  1  0  0  0
  6 17  1  0  0  0
  7 14  1  0  0  0
  8 10  1  0  0  0
  9 11  1  0  0  0
 10 13  1  0  0  0
 11 13  1  0  0  0
 12 13  1  0  0  0
 12 14  1  0  0  0
  1  3  2  0  0  0
  2  5  2  0  0  0
  4  6  2  0  0  0
  7 15  2  0  0  0
M  END
> <rmsd>
0.48751545

$$$$
ZINC92121605


 17 17  0  0  0  0  0  0  0  0999 V2000
    6.5531   -3.2338    1.8246 C   0  0  0  0  0
    5.2901   -3.8140    1.7076 C   0  0  0  0  0
    6.7450   -1.9011    1.4601 C   0  0  0  0  0
    4.4107   -1.7288    0.8614 C   0  0  0  0  0
    4.2189   -3.0616    1.2260 C   0  0  0  0  0
    5.6738   -1.1487    0.9785 C   0  0  0  0  0
    3.2809   -0.9351    0.3527 C   0  0  0  0  0
    2.5952    3.3347    1.9141 C   0  0  0  0  0
    0.4797    2.6571   -0.1929 C   0  0  0  0  0
    2.8753   -0.3407    2.7098 C   0  0  0  0  0
    2.8746    2.6717    0.5731 C   0  0  0  0  0
    1.3770    0.6136    0.9942 C   0  0  0  0  0
    1.7168    1.7901    0.0664 C   0  0  0  0  0
    2.5056   -0.2239    1.2953 N   0  0  0  0  0
    3.1108   -0.9490   -0.8660 O   0  0  0  0  0
    2.9930   -3.6483    1.1206 O   0  0  0  0  0
    5.8832    0.1520    0.6288 O   0  0  0  0  0
  1  2  1  0  0  0
  3  6  1  0  0  0
  4  5  1  0  0  0
  4  7  1  0  0  0
  5 16  1  0  0  0
  6 17  1  0  0  0
  7 14  1  0  0  0
  8 11  1  0  0  0
  9 13  1  0  0  0
 10 14  1  0  0  0
 11 13  1  0  0  0
 12 13  1  0  0  0
 12 14  1  0  0  0
  1  3  2  0  0  0
  2  5  2  0  0  0
  4  6  2  0  0  0
  7 15  2  0  0  0
M  END
> <rmsd>
0.412940145

$$$$
ZINC92108135


 17 17  0  0  0  0  0  0  0  0999 V2000
    6.3801   -3.2891    1.9170 C   0  0  0  0  0
    5.0864   -3.8061    1.8477 C   0  0  0  0  0
    6.6381   -1.9933    1.4698 C   0  0  0  0  0
    4.3089   -1.7315    0.8840 C   0  0  0  0  0
    4.0509   -3.0273    1.3313 C   0  0  0  0  0
    5.6026   -1.2145    0.9534 C   0  0  0  0  0
    3.2167   -0.9099    0.3386 C   0  0  0  0  0
    2.6113    0.8618    3.0052 C   0  0  0  0  0
    1.4758    1.6420   -0.7266 C   0  0  0  0  0
   -0.9353    1.3830   -0.0602 C   0  0  0  0  0
    2.2764   -0.5287    2.5845 C   0  0  0  0  0
    0.7558   -0.3763    0.6446 C   0  0  0  0  0
    0.5156    1.1066    0.3366 C   0  0  0  0  0
    2.1270   -0.6181    1.1470 N   0  0  0  0  0
    3.3566   -0.5178   -0.8194 O   0  0  0  0  0
    2.7940   -3.5521    1.2737 O   0  0  0  0  0
    5.8768    0.0494    0.5228 O   0  0  0  0  0
  1  2  1  0  0  0
  3  6  1  0  0  0
  4  5  1  0  0  0
  4  7  1  0  0  0
  5 16  1  0  0  0
  6 17  1  0  0  0
  7 14  1  0  0  0
  8 11  1  0  0  0
  9 13  1  0  0  0
 10 13  1  0  0  0
 11 14  1  0  0  0
 12 13  1  0  0  0
 12 14  1  0  0  0
  1  3  2  0  0  0
  2  5  2  0  0  0
  4  6  2  0  0  0
  7 15  2  0  0  0
M  END
> <rmsd>
0.511553407

$$$$
ZINC92125969


 17 17  0  0  0  0  0  0  0  0999 V2000
    6.2436   -2.7921    2.5807 C   0  0  0  0  0
    5.0761   -3.5176    2.3440 C   0  0  0  0  0
    6.4198   -1.5416    1.9882 C   0  0  0  0  0
    4.2611   -1.7424    0.9222 C   0  0  0  0  0
    4.0849   -2.9929    1.5148 C   0  0  0  0  0
    5.4286   -1.0168    1.1589 C   0  0  0  0  0
    3.2058   -1.1836    0.0384 C   0  0  0  0  0
    0.4239    2.1622    1.3657 C   0  0  0  0  0
    1.9287    3.3038   -0.2749 C   0  0  0  0  0
    0.4865   -1.4642   -1.2306 C   0  0  0  0  0
    1.1555    0.9036   -0.6834 C   0  0  0  0  0
    1.5637    1.9625    0.3625 C   0  0  0  0  0
    0.8298   -0.4845   -0.1112 C   0  0  0  0  0
    1.9657   -0.9971    0.6255 N   0  0  0  0  0
    3.4723   -0.9424   -1.1360 O   0  0  0  0  0
    2.9514   -3.7185    1.2979 O   0  0  0  0  0
    5.6210    0.2072    0.5908 O   0  0  0  0  0
  1  2  1  0  0  0
  3  6  1  0  0  0
  4  5  1  0  0  0
  4  7  1  0  0  0
  5 16  1  0  0  0
  6 17  1  0  0  0
  7 14  1  0  0  0
  8 12  1  0  0  0
  9 12  1  0  0  0
 10 13  1  0  0  0
 11 12  1  0  0  0
 11 13  1  0  0  0
 13 14  1  0  0  0
  1  3  2  0  0  0
  2  5  2  0  0  0
  4  6  2  0  0  0
  7 15  2  0  0  0
M  END
> <rmsd>
0.453692824

$$$$
ZINC35052122


 15 15  0  0  0  0  0  0  0  0999 V2000
    1.5514   -2.5455   -0.1646 C   0  0  0  0  0
    2.7027   -2.3398    0.8209 C   0  0  0  0  0
    0.9882   -1.1853   -0.6056 C   0  0  0  0  0
    3.8298   -1.5129    0.1764 C   0  0  0  0  0
    2.0352   -0.0625   -0.4702 C   0  0  0  0  0
    1.0233    2.8978    0.5872 C   0  0  0  0  0
   -0.5612    2.9732   -1.3683 C   0  0  0  0  0
    4.6786   -0.7899    1.2191 C   0  0  0  0  0
    0.3515    2.0953   -0.5206 C   0  0  0  0  0
    3.3374   -0.5578   -0.7740 O   0  0  0  0  0
    2.0557   -3.2377   -1.3096 O   0  0  0  0  0
    3.1983   -3.6049    1.2464 O   0  0  0  0  0
   -0.1300   -0.8717    0.2240 O   0  0  0  0  0
    5.6936   -0.0652    0.5491 O   0  0  0  0  0
    1.6083    1.3334   -1.5684 S   0  0  0  0  0
  1  2  1  0  0  0
  1  3  1  0  0  0
  1 11  1  0  0  0
  2  4  1  0  0  0
  2 12  1  0  0  0
  3  5  1  0  0  0
  3 13  1  0  0  0
  4  8  1  0  0  0
  4 10  1  0  0  0
  5 10  1  0  0  0
  5 15  1  0  0  0
  6  9  1  0  0  0
  7  9  1  0  0  0
  8 14  1  0  0  0
  9 15  1  0  0  0
M  END
> <rmsd>
0.396370322

$$$$
ZINC83251291


 17 17  0  0  0  0  0  0  0  0999 V2000
    1.6114    1.6849   -0.3248 C   0  0  0  0  0
    0.6994    2.6711   -0.7000 C   0  0  0  0  0
   -0.9982    1.6184    0.6592 C   0  0  0  0  0
    1.2187    0.6652    0.5424 C   0  0  0  0  0
   -0.6055    2.6380   -0.2080 C   0  0  0  0  0
   -0.0861    0.6320    1.0344 C   0  0  0  0  0
    3.9905   -1.8499    0.8958 C   0  0  0  0  0
    3.2140   -0.7903    0.1634 C   0  0  0  0  0
   -1.0279    4.6140   -1.4621 C   0  0  0  0  0
   -1.0385   -1.5315    1.2939 C   0  0  0  0  0
    5.2345   -1.5504    1.0977 N   0  0  0  0  0
    3.2893   -2.9727    1.2519 N   0  0  0  0  0
    2.1439   -0.3145    0.9103 N   0  0  0  0  0
    3.6056   -0.4902   -0.9518 O   0  0  0  0  0
    5.5103   -0.2894    0.5614 O   0  0  0  0  0
   -1.4958    3.6007   -0.5734 O   0  0  0  0  0
   -0.4903   -0.3549    1.8836 O   0  0  0  0  0
  1  4  1  0  0  0
  2  5  1  0  0  0
  3  6  1  0  0  0
  4 13  1  0  0  0
  5 16  1  0  0  0
  6 17  1  0  0  0
  7  8  1  0  0  0
  7 12  1  0  0  0
  8 13  1  0  0  0
  9 16  1  0  0  0
 10 17  1  0  0  0
 11 15  1  0  0  0
  1  2  2  0  0  0
  3  5  2  0  0  0
  4  6  2  0  0  0
  7 11  2  0  0  0
  8 14  2  0  0  0
M  END
> <rmsd>
0.424909562

$$$$
ZINC92125480


 17 17  0  0  0  0  0  0  0  0999 V2000
    6.4371   -3.1827    2.1567 C   0  0  0  0  0
    5.1798   -3.7721    2.0245 C   0  0  0  0  0
    6.6602   -1.8973    1.6632 C   0  0  0  0  0
    4.3687   -1.7906    0.9051 C   0  0  0  0  0
    4.1456   -3.0760    1.3986 C   0  0  0  0  0
    5.6260   -1.2013    1.0374 C   0  0  0  0  0
    3.2675   -1.0494    0.2379 C   0  0  0  0  0
    0.3395    3.7084    0.1385 C   0  0  0  0  0
   -1.2807    1.8172   -0.0657 C   0  0  0  0  0
    0.9780   -0.1292    0.4973 C   0  0  0  0  0
    0.1948    2.2147   -0.1736 C   0  0  0  0  0
    1.1167    1.3762    0.7396 C   0  0  0  0  0
    2.1423   -0.8157    1.0115 N   0  0  0  0  0
    3.3974   -0.7099   -0.9353 O   0  0  0  0  0
    2.9246   -3.6707    1.2811 O   0  0  0  0  0
    5.8656    0.0540    0.5631 O   0  0  0  0  0
    0.8139    1.6573    2.1065 O   0  0  0  0  0
  1  2  1  0  0  0
  3  6  1  0  0  0
  4  5  1  0  0  0
  4  7  1  0  0  0
  5 15  1  0  0  0
  6 16  1  0  0  0
  7 13  1  0  0  0
  8 11  1  0  0  0
  9 11  1  0  0  0
 10 12  1  0  0  0
 10 13  1  0  0  0
 11 12  1  0  0  0
 12 17  1  0  0  0
  1  3  2  0  0  0
  2  5  2  0  0  0
  4  6  2  0  0  0
  7 14  2  0  0  0
M  END
> <rmsd>
0.452255279

$$$$
ZINC92125290


 17 17  0  0  0  0  0  0  0  0999 V2000
    6.2969   -2.8939    2.4413 C   0  0  0  0  0
    5.0993   -3.5795    2.2378 C   0  0  0  0  0
    6.4800   -1.6291    1.8824 C   0  0  0  0  0
    4.2682   -1.7355    0.9165 C   0  0  0  0  0
    4.0849   -3.0002    1.4754 C   0  0  0  0  0
    5.4657   -1.0498    1.1200 C   0  0  0  0  0
    3.1881   -1.1187    0.1038 C   0  0  0  0  0
    1.3316    2.1275    0.3225 C   0  0  0  0  0
   -0.2999   -1.3788    0.0321 C   0  0  0  0  0
    0.2765    0.9114    2.2691 C   0  0  0  0  0
    0.3917    0.9855    0.7388 C   0  0  0  0  0
    0.8286   -0.3515    0.0931 C   0  0  0  0  0
    1.9809   -0.9182    0.7550 N   0  0  0  0  0
    3.4051   -0.8447   -1.0735 O   0  0  0  0  0
    2.9223   -3.6876    1.2901 O   0  0  0  0  0
    5.6655    0.1873    0.5838 O   0  0  0  0  0
    1.5603    0.6818    2.8395 O   0  0  0  0  0
  1  2  1  0  0  0
  3  6  1  0  0  0
  4  5  1  0  0  0
  4  7  1  0  0  0
  5 15  1  0  0  0
  6 16  1  0  0  0
  7 13  1  0  0  0
  8 11  1  0  0  0
  9 12  1  0  0  0
 10 11  1  0  0  0
 10 17  1  0  0  0
 11 12  1  0  0  0
 12 13  1  0  0  0
  1  3  2  0  0  0
  2  5  2  0  0  0
  4  6  2  0  0  0
  7 14  2  0  0  0
M  END
> <rmsd>
0.425982296

$$$$
ZINC92125290


 17 17  0  0  0  0  0  0  0  0999 V2000
    6.2876   -3.1246    2.3284 C   0  0  0  0  0
    5.0197   -3.6814    2.1610 C   0  0  0  0  0
    6.5758   -1.8713    1.7881 C   0  0  0  0  0
    4.3283   -1.7316    0.9130 C   0  0  0  0  0
    4.0401   -2.9849    1.4533 C   0  0  0  0  0
    5.5962   -1.1748    1.0804 C   0  0  0  0  0
    3.2852   -0.9900    0.1586 C   0  0  0  0  0
   -0.3847    2.1282    0.2372 C   0  0  0  0  0
   -0.2114   -0.8969    0.2267 C   0  0  0  0  0
    1.9955    2.2499    1.0742 C   0  0  0  0  0
    0.7433    1.3682    0.9518 C   0  0  0  0  0
    1.0169    0.0101    0.2615 C   0  0  0  0  0
    2.1310   -0.6853    0.8633 N   0  0  0  0  0
    3.4824   -0.7105   -1.0209 O   0  0  0  0  0
    2.8074   -3.5473    1.3026 O   0  0  0  0  0
    5.8990    0.0488    0.5615 O   0  0  0  0  0
    2.4461    2.6313   -0.2209 O   0  0  0  0  0
  1  2  1  0  0  0
  3  6  1  0  0  0
  4  5  1  0  0  0
  4  7  1  0  0  0
  5 15  1  0  0  0
  6 16  1  0  0  0
  7 13  1  0  0  0
  8 11  1  0  0  0
  9 12  1  0  0  0
 10 11  1  0  0  0
 10 17  1  0  0  0
 11 12  1  0  0  0
 12 13  1  0  0  0
  1  3  2  0  0  0
  2  5  2  0  0  0
  4  6  2  0  0  0
  7 14  2  0  0  0
M  END
> <rmsd>
0.481088787

$$$$
ZINC92125289


 17 17  0  0  0  0  0  0  0  0999 V2000
    6.4506   -3.2119    2.0541 C   0  0  0  0  0
    5.1867   -3.7917    1.9448 C   0  0  0  0  0
    6.6664   -1.9159    1.5854 C   0  0  0  0  0
    4.3543   -1.7796    0.8980 C   0  0  0  0  0
    4.1385   -3.0755    1.3667 C   0  0  0  0  0
    5.6182   -1.1999    1.0073 C   0  0  0  0  0
    3.2382   -1.0170    0.2817 C   0  0  0  0  0
    0.1742    2.1964   -0.1375 C   0  0  0  0  0
   -0.2906   -0.6788    1.2775 C   0  0  0  0  0
    0.8205    1.8814    2.2835 C   0  0  0  0  0
    1.0873    1.4368    0.8372 C   0  0  0  0  0
    0.9625   -0.0920    0.6306 C   0  0  0  0  0
    2.1363   -0.7959    1.0931 N   0  0  0  0  0
    3.3354   -0.6497   -0.8863 O   0  0  0  0  0
    2.9112   -3.6611    1.2709 O   0  0  0  0  0
    5.8508    0.0654    0.5566 O   0  0  0  0  0
    1.6763    1.1719    3.1724 O   0  0  0  0  0
  1  2  1  0  0  0
  3  6  1  0  0  0
  4  5  1  0  0  0
  4  7  1  0  0  0
  5 15  1  0  0  0
  6 16  1  0  0  0
  7 13  1  0  0  0
  8 11  1  0  0  0
  9 12  1  0  0  0
 10 11  1  0  0  0
 10 17  1  0  0  0
 11 12  1  0  0  0
 12 13  1  0  0  0
  1  3  2  0  0  0
  2  5  2  0  0  0
  4  6  2  0  0  0
  7 14  2  0  0  0
M  END
> <rmsd>
0.321469456

$$$$
ZINC92125967


 16 16  0  0  0  0  0  0  0  0999 V2000
    6.3702   -3.1631    2.2084 C   0  0  0  0  0
    5.1060   -3.7349    2.0662 C   0  0  0  0  0
    6.6204   -1.8886    1.6998 C   0  0  0  0  0
    4.3420   -1.7577    0.9068 C   0  0  0  0  0
    4.0919   -3.0323    1.4153 C   0  0  0  0  0
    5.6064   -1.1859    1.0489 C   0  0  0  0  0
    3.2623   -1.0095    0.2130 C   0  0  0  0  0
   -0.1297    2.2148    0.0651 C   0  0  0  0  0
    2.1460    3.4796    2.1438 C   0  0  0  0  0
    0.9839   -0.0504    0.4257 C   0  0  0  0  0
    1.0814    1.4667    0.6171 C   0  0  0  0  0
    2.1290   -0.7466    0.9662 N   0  0  0  0  0
    3.4143   -0.6891   -0.9629 O   0  0  0  0  0
    2.8635   -3.6096    1.2885 O   0  0  0  0  0
    5.8722    0.0584    0.5603 O   0  0  0  0  0
    1.3199    1.8916    2.3798 S   0  0  0  0  0
  1  2  1  0  0  0
  3  6  1  0  0  0
  4  5  1  0  0  0
  4  7  1  0  0  0
  5 14  1  0  0  0
  6 15  1  0  0  0
  7 12  1  0  0  0
  8 11  1  0  0  0
  9 16  1  0  0  0
 10 11  1  0  0  0
 10 12  1  0  0  0
 11 16  1  0  0  0
  1  3  2  0  0  0
  2  5  2  0  0  0
  4  6  2  0  0  0
  7 13  2  0  0  0
M  END
> <rmsd>
0.379433393

$$$$
ZINC92125967


 16 16  0  0  0  0  0  0  0  0999 V2000
    6.4320   -2.9657    2.2680 C   0  0  0  0  0
    5.2357   -3.6631    2.1002 C   0  0  0  0  0
    6.5646   -1.6751    1.7559 C   0  0  0  0  0
    4.3046   -1.7792    0.9082 C   0  0  0  0  0
    4.1721   -3.0698    1.4203 C   0  0  0  0  0
    5.5009   -1.0817    1.0760 C   0  0  0  0  0
    3.1721   -1.1474    0.1835 C   0  0  0  0  0
    0.0488    0.5814    2.5536 C   0  0  0  0  0
    1.2497    2.6289   -0.7911 C   0  0  0  0  0
    0.8040   -0.4225    0.3348 C   0  0  0  0  0
    0.3492    0.8375    1.0787 C   0  0  0  0  0
    2.0000   -0.9967    0.9076 N   0  0  0  0  0
    3.3195   -0.8192   -0.9909 O   0  0  0  0  0
    3.0117   -3.7691    1.2687 O   0  0  0  0  0
    5.6517    0.1806    0.5845 O   0  0  0  0  0
    1.5877    2.1742    0.9232 S   0  0  0  0  0
  1  2  1  0  0  0
  3  6  1  0  0  0
  4  5  1  0  0  0
  4  7  1  0  0  0
  5 14  1  0  0  0
  6 15  1  0  0  0
  7 12  1  0  0  0
  8 11  1  0  0  0
  9 16  1  0  0  0
 10 11  1  0  0  0
 10 12  1  0  0  0
 11 16  1  0  0  0
  1  3  2  0  0  0
  2  5  2  0  0  0
  4  6  2  0  0  0
  7 13  2  0  0  0
M  END
> <rmsd>
0.464838296

$$$$
ZINC92125966


 16 16  0  0  0  0  0  0  0  0999 V2000
    6.2074   -2.8134    2.5662 C   0  0  0  0  0
    5.0214   -3.5098    2.3348 C   0  0  0  0  0
    6.4109   -1.5665    1.9749 C   0  0  0  0  0
    4.2420   -1.7127    0.9204 C   0  0  0  0  0
    4.0387   -2.9596    1.5119 C   0  0  0  0  0
    5.4282   -1.0162    1.1520 C   0  0  0  0  0
    3.1958   -1.1268    0.0435 C   0  0  0  0  0
    1.3952    2.0449    0.5018 C   0  0  0  0  0
   -1.8472   -0.1113    1.7883 C   0  0  0  0  0
    0.8368   -0.3696   -0.0917 C   0  0  0  0  0
    0.3338    0.9475    0.5083 C   0  0  0  0  0
    1.9620   -0.9103    0.6364 N   0  0  0  0  0
    3.4617   -0.8900   -1.1320 O   0  0  0  0  0
    2.8867   -3.6570    1.3001 O   0  0  0  0  0
    5.6472    0.2038    0.5850 O   0  0  0  0  0
   -0.2933    0.7061    2.2092 S   0  0  0  0  0
  1  2  1  0  0  0
  3  6  1  0  0  0
  4  5  1  0  0  0
  4  7  1  0  0  0
  5 14  1  0  0  0
  6 15  1  0  0  0
  7 12  1  0  0  0
  8 11  1  0  0  0
  9 16  1  0  0  0
 10 11  1  0  0  0
 10 12  1  0  0  0
 11 16  1  0  0  0
  1  3  2  0  0  0
  2  5  2  0  0  0
  4  6  2  0  0  0
  7 13  2  0  0  0
M  END
> <rmsd>
0.480497777

$$$$
ZINC92125966


 16 16  0  0  0  0  0  0  0  0999 V2000
    6.5112   -3.3079    1.8936 C   0  0  0  0  0
    5.2348   -3.8657    1.8214 C   0  0  0  0  0
    6.7256   -1.9985    1.4632 C   0  0  0  0  0
    4.3870   -1.8047    0.8882 C   0  0  0  0  0
    4.1727   -3.1141    1.3187 C   0  0  0  0  0
    5.6635   -1.2470    0.9605 C   0  0  0  0  0
    3.2561   -1.0042    0.3522 C   0  0  0  0  0
    1.3802    1.7290    2.6146 C   0  0  0  0  0
    0.0251    2.3097   -1.2121 C   0  0  0  0  0
    1.0132   -0.0615    0.8388 C   0  0  0  0  0
    1.1394    1.4364    1.1357 C   0  0  0  0  0
    2.1961   -0.7984    1.2209 N   0  0  0  0  0
    3.3059   -0.5951   -0.8048 O   0  0  0  0  0
    2.9333   -3.6786    1.2580 O   0  0  0  0  0
    5.8950    0.0309    0.5463 O   0  0  0  0  0
   -0.3325    2.3547    0.5571 S   0  0  0  0  0
  1  2  1  0  0  0
  3  6  1  0  0  0
  4  5  1  0  0  0
  4  7  1  0  0  0
  5 14  1  0  0  0
  6 15  1  0  0  0
  7 12  1  0  0  0
  8 11  1  0  0  0
  9 16  1  0  0  0
 10 11  1  0  0  0
 10 12  1  0  0  0
 11 16  1  0  0  0
  1  3  2  0  0  0
  2  5  2  0  0  0
  4  6  2  0  0  0
  7 13  2  0  0  0
M  END
> <rmsd>
0.470792949

$$$$
ZINC00402630


 17 18  0  0  0  0  0  0  0  0999 V2000
    2.0246    1.3513    0.1174 C   0  0  0  0  0
    1.4460    2.4391    0.6410 C   0  0  0  0  0
   -0.0266    2.5921    0.5015 C   0  0  0  0  0
   -0.0560    0.4220   -0.7250 C   0  0  0  0  0
    1.7173   -2.0814   -0.3932 C   0  0  0  0  0
    2.6717   -2.1088    0.7770 C   0  0  0  0  0
    3.9344   -1.5224    0.1712 C   0  0  0  0  0
    2.0971   -0.7730   -1.0668 C   0  0  0  0  0
    2.1992    3.5117    1.3602 C   0  0  0  0  0
    4.8488   -0.8600    1.1854 C   0  0  0  0  0
   -0.6575    1.5602   -0.1767 N   0  0  0  0  0
    1.3450    0.3411   -0.5553 N   0  0  0  0  0
    2.8877   -3.4829    1.2623 N   0  0  0  0  0
   -0.6188    3.5657    0.9597 O   0  0  0  0  0
   -0.7249   -0.4331   -1.3089 O   0  0  0  0  0
    3.4876   -0.5452   -0.7884 O   0  0  0  0  0
    5.7230    0.0181    0.4995 O   0  0  0  0  0
  1 12  1  0  0  0
  2  3  1  0  0  0
  3 11  1  0  0  0
  4 11  1  0  0  0
  4 12  1  0  0  0
  5  6  1  0  0  0
  5  8  1  0  0  0
  6  7  1  0  0  0
  6 13  1  0  0  0
  7 10  1  0  0  0
  7 16  1  0  0  0
  8 12  1  0  0  0
  8 16  1  0  0  0
  9  2  1  0  0  0
 10 17  1  0  0  0
  1  2  2  0  0  0
  3 14  2  0  0  0
  4 15  2  0  0  0
M  CHG  1  13   1
M  END
> <rmsd>
0.431773901

$$$$
ZINC92106409


 18 19  0  0  0  0  0  0  0  0999 V2000
    0.6392    3.8414    0.2417 C   0  0  0  0  0
   -0.0841    3.0996   -0.6920 C   0  0  0  0  0
    1.4829    3.1941    1.1445 C   0  0  0  0  0
    6.3538   -2.9679    2.3829 C   0  0  0  0  0
    0.0362    1.7102   -0.7231 C   0  0  0  0  0
    1.6032    1.8047    1.1134 C   0  0  0  0  0
    5.1449   -3.6381    2.1967 C   0  0  0  0  0
    6.5392   -1.6984    1.8355 C   0  0  0  0  0
    4.3064   -1.7693    0.9154 C   0  0  0  0  0
    0.8798    1.0628    0.1796 C   0  0  0  0  0
    4.1211   -3.0388    1.4628 C   0  0  0  0  0
    5.5154   -1.0991    1.1017 C   0  0  0  0  0
    3.2363   -1.1427    0.1475 C   0  0  0  0  0
    1.0008   -0.3318    0.1487 N   0  0  0  0  0
    2.0326   -0.9293    0.8157 N   0  0  0  0  0
    3.4206   -0.8138   -1.0361 O   0  0  0  0  0
    2.9474   -3.7113    1.2939 O   0  0  0  0  0
    5.7174    0.1423    0.5764 O   0  0  0  0  0
  1  2  1  0  0  0
  3  6  1  0  0  0
  4  7  1  0  0  0
  5 10  1  0  0  0
  8 12  1  0  0  0
  9 11  1  0  0  0
  9 13  1  0  0  0
 10 14  1  0  0  0
 11 17  1  0  0  0
 12 18  1  0  0  0
 13 15  1  0  0  0
 14 15  1  0  0  0
  1  3  2  0  0  0
  2  5  2  0  0  0
  4  8  2  0  0  0
  6 10  2  0  0  0
  7 11  2  0  0  0
  9 12  2  0  0  0
 13 16  2  0  0  0
M  END
> <rmsd>
0.243807018

$$$$
ZINC92103541


 18 19  0  0  0  0  0  0  0  0999 V2000
    6.4665   -3.0475    2.1476 C   0  0  0  0  0
    1.3073    3.1192   -0.8407 C   0  0  0  0  0
    5.2491   -3.7139    2.0088 C   0  0  0  0  0
    6.6089   -1.7470    1.6638 C   0  0  0  0  0
    0.8860    1.7910   -1.0887 C   0  0  0  0  0
    1.7220    3.1498    0.4705 C   0  0  0  0  0
    4.3164   -1.7795    0.9020 C   0  0  0  0  0
    4.1741   -3.0800    1.3859 C   0  0  0  0  0
    5.5338   -1.1130    1.0408 C   0  0  0  0  0
    1.0735    1.1046    0.0885 C   0  0  0  0  0
    3.1925   -1.1167    0.2500 C   0  0  0  0  0
    0.2474   -1.1748   -0.6330 C   0  0  0  0  0
    0.8286   -0.3312    0.4997 C   0  0  0  0  0
    2.0320   -0.9473    1.0107 N   0  0  0  0  0
    3.2816   -0.7489   -0.9326 O   0  0  0  0  0
    1.5829    1.9257    1.0439 O   0  0  0  0  0
    2.9931   -3.7495    1.2618 O   0  0  0  0  0
    5.6944    0.1583    0.5760 O   0  0  0  0  0
  1  3  1  0  0  0
  2  5  1  0  0  0
  4  9  1  0  0  0
  6 16  1  0  0  0
  7  8  1  0  0  0
  7 11  1  0  0  0
  8 17  1  0  0  0
  9 18  1  0  0  0
 10 16  1  0  0  0
 11 14  1  0  0  0
 12 13  1  0  0  0
 13 10  1  0  0  0
 13 14  1  0  0  0
  1  4  2  0  0  0
  2  6  2  0  0  0
  3  8  2  0  0  0
  5 10  2  0  0  0
  7  9  2  0  0  0
 11 15  2  0  0  0
M  END
> <rmsd>
0.431096137

$$$$
ZINC92126655


 18 19  0  0  0  0  0  0  0  0999 V2000
    6.3305   -2.9525    2.3970 C   0  0  0  0  0
    5.1210   -3.6201    2.2049 C   0  0  0  0  0
    6.5221   -1.6844    1.8484 C   0  0  0  0  0
    1.0979    3.1814   -0.3751 C   0  0  0  0  0
    4.2945   -1.7516    0.9154 C   0  0  0  0  0
    4.1030   -3.0196    1.4641 C   0  0  0  0  0
    5.5041   -1.0840    1.1076 C   0  0  0  0  0
    0.8745    1.1857    0.2497 C   0  0  0  0  0
    0.5953    1.9884    1.3279 C   0  0  0  0  0
    3.2304   -1.1238    0.1402 C   0  0  0  0  0
    0.1996    1.7545    2.7207 C   0  0  0  0  0
    0.8620   -0.3129    0.1593 C   0  0  0  0  0
    1.1957    1.9559   -0.8386 N   0  0  0  0  0
    2.0167   -0.9029    0.7976 N   0  0  0  0  0
    3.4134   -0.8287   -1.0519 O   0  0  0  0  0
    0.7373    3.2845    0.9334 O   0  0  0  0  0
    2.9286   -3.6896    1.2896 O   0  0  0  0  0
    5.7121    0.1560    0.5811 O   0  0  0  0  0
  1  2  1  0  0  0
  3  7  1  0  0  0
  4 16  1  0  0  0
  5  6  1  0  0  0
  5 10  1  0  0  0
  6 17  1  0  0  0
  7 18  1  0  0  0
  8 13  1  0  0  0
  9 16  1  0  0  0
 10 14  1  0  0  0
 11  9  1  0  0  0
 12  8  1  0  0  0
 12 14  1  0  0  0
  1  3  2  0  0  0
  2  6  2  0  0  0
  4 13  2  0  0  0
  5  7  2  0  0  0
  8  9  2  0  0  0
 10 15  2  0  0  0
M  END
> <rmsd>
0.267937362

$$$$
ZINC92127155


 18 19  0  0  0  0  0  0  0  0999 V2000
    6.3320   -2.9550    2.3932 C   0  0  0  0  0
    5.1222   -3.6223    2.2019 C   0  0  0  0  0
    6.5231   -1.6864    1.8455 C   0  0  0  0  0
    0.7559    3.1760    0.8746 C   0  0  0  0  0
    4.2944   -1.7524    0.9152 C   0  0  0  0  0
    4.1034   -3.0210    1.4629 C   0  0  0  0  0
    5.5043   -1.0852    1.1065 C   0  0  0  0  0
    0.8740    1.1858    0.2563 C   0  0  0  0  0
    3.2294   -1.1239    0.1418 C   0  0  0  0  0
    1.3847    4.4160   -1.2615 C   0  0  0  0  0
    0.8611   -0.3126    0.1645 C   0  0  0  0  0
    0.5968    1.8967    1.3247 N   0  0  0  0  0
    1.1827    2.0143   -0.7772 N   0  0  0  0  0
    1.1140    3.3016   -0.4050 N   0  0  0  0  0
    2.0166   -0.9034    0.8008 N   0  0  0  0  0
    3.4110   -0.8276   -1.0502 O   0  0  0  0  0
    2.9287   -3.6906    1.2892 O   0  0  0  0  0
    5.7118    0.1552    0.5810 O   0  0  0  0  0
  1  2  1  0  0  0
  3  7  1  0  0  0
  4 14  1  0  0  0
  5  6  1  0  0  0
  5  9  1  0  0  0
  6 17  1  0  0  0
  7 18  1  0  0  0
  8 12  1  0  0  0
  9 15  1  0  0  0
 10 14  1  0  0  0
 11  8  1  0  0  0
 11 15  1  0  0  0
 14 13  1  0  0  0
  1  3  2  0  0  0
  2  6  2  0  0  0
  4 12  2  0  0  0
  5  7  2  0  0  0
  8 13  2  0  0  0
  9 16  2  0  0  0
M  END
> <rmsd>
0.268748939

$$$$
ZINC92119912


 18 18  0  0  0  0  0  0  0  0999 V2000
    2.3843    2.0635   -1.1343 C   0  0  0  0  0
    6.4429   -3.0676    2.1684 C   0  0  0  0  0
    5.2123   -3.6943    1.9727 C   0  0  0  0  0
    6.6397   -1.7616    1.7197 C   0  0  0  0  0
    4.3752   -1.7091    0.8793 C   0  0  0  0  0
    4.1784   -3.0151    1.3282 C   0  0  0  0  0
    5.6059   -1.0824    1.0751 C   0  0  0  0  0
    3.2848   -0.9928    0.1988 C   0  0  0  0  0
    1.8555   -1.3218    3.1034 C   0  0  0  0  0
    0.5073    2.9464    0.2045 C   0  0  0  0  0
    2.6089   -0.2200    2.4392 C   0  0  0  0  0
    1.2866    0.5411    0.4973 C   0  0  0  0  0
    1.6940    1.9832    0.1676 C   0  0  0  0  0
    2.9291    2.1270   -2.1569 N   0  0  0  0  0
    2.4008   -0.2363    0.9913 N   0  0  0  0  0
    3.2406   -1.1052   -1.0258 O   0  0  0  0  0
    2.9836   -3.6463    1.1483 O   0  0  0  0  0
    5.8194    0.1934    0.6453 O   0  0  0  0  0
  2  3  1  0  0  0
  4  7  1  0  0  0
  5  6  1  0  0  0
  5  8  1  0  0  0
  6 17  1  0  0  0
  7 18  1  0  0  0
  8 15  1  0  0  0
  9 11  1  0  0  0
 10 13  1  0  0  0
 11 15  1  0  0  0
 12 13  1  0  0  0
 12 15  1  0  0  0
 13  1  1  0  0  0
  2  4  2  0  0  0
  3  6  2  0  0  0
  5  7  2  0  0  0
  8 16  2  0  0  0
  1 14  3  0  0  0
M  END
> <rmsd>
0.443391591

$$$$
ZINC92122101


 18 19  0  0  0  0  0  0  0  0999 V2000
    6.3177   -2.9483    2.4090 C   0  0  0  0  0
    5.1073   -3.6135    2.2144 C   0  0  0  0  0
    6.5146   -1.6825    1.8568 C   0  0  0  0  0
    4.2904   -1.7472    0.9155 C   0  0  0  0  0
    4.0936   -3.0130    1.4677 C   0  0  0  0  0
    5.5009   -1.0820    1.1101 C   0  0  0  0  0
    0.8804    1.1963    0.2268 C   0  0  0  0  0
    1.0881    3.1797   -0.3235 C   0  0  0  0  0
    3.2309   -1.1195    0.1341 C   0  0  0  0  0
    1.2969    4.4903   -0.9537 C   0  0  0  0  0
    0.8644   -0.3026    0.1413 C   0  0  0  0  0
    1.2024    1.9826   -0.8409 N   0  0  0  0  0
    0.5786    1.8446    1.3557 N   0  0  0  0  0
    2.0152   -0.8933    0.7861 N   0  0  0  0  0
    3.4191   -0.8288   -1.0583 O   0  0  0  0  0
    0.7192    3.1877    0.9843 O   0  0  0  0  0
    2.9183   -3.6806    1.2909 O   0  0  0  0  0
    5.7140    0.1556    0.5803 O   0  0  0  0  0
  1  2  1  0  0  0
  3  6  1  0  0  0
  4  5  1  0  0  0
  4  9  1  0  0  0
  5 17  1  0  0  0
  6 18  1  0  0  0
  7 12  1  0  0  0
  8 16  1  0  0  0
  9 14  1  0  0  0
 10  8  1  0  0  0
 11  7  1  0  0  0
 11 14  1  0  0  0
 13 16  1  0  0  0
  1  3  2  0  0  0
  2  5  2  0  0  0
  4  6  2  0  0  0
  7 13  2  0  0  0
  8 12  2  0  0  0
  9 15  2  0  0  0
M  END
> <rmsd>
0.266314447

$$$$
ZINC92122101


 18 19  0  0  0  0  0  0  0  0999 V2000
    6.3150   -2.9452    2.4140 C   0  0  0  0  0
    5.1048   -3.6106    2.2184 C   0  0  0  0  0
    6.5129   -1.6802    1.8606 C   0  0  0  0  0
    4.2902   -1.7458    0.9159 C   0  0  0  0  0
    4.0924   -3.0109    1.4694 C   0  0  0  0  0
    5.5004   -1.0805    1.1116 C   0  0  0  0  0
    0.8816    1.1972    0.2182 C   0  0  0  0  0
    0.7141    3.1102    0.9878 C   0  0  0  0  0
    3.2319   -1.1189    0.1321 C   0  0  0  0  0
    0.5314    4.3459    1.7612 C   0  0  0  0  0
    0.8656   -0.3017    0.1346 C   0  0  0  0  0
    0.5733    1.8653    1.3674 N   0  0  0  0  0
    1.1999    1.9618   -0.8306 N   0  0  0  0  0
    2.0153   -0.8918    0.7818 N   0  0  0  0  0
    3.4221   -0.8297   -1.0604 O   0  0  0  0  0
    1.0868    3.2573   -0.3106 O   0  0  0  0  0
    2.9172   -3.6785    1.2916 O   0  0  0  0  0
    5.7146    0.1564    0.5805 O   0  0  0  0  0
  1  2  1  0  0  0
  3  6  1  0  0  0
  4  5  1  0  0  0
  4  9  1  0  0  0
  5 17  1  0  0  0
  6 18  1  0  0  0
  7 12  1  0  0  0
  8 16  1  0  0  0
  9 14  1  0  0  0
 10  8  1  0  0  0
 11  7  1  0  0  0
 11 14  1  0  0  0
 13 16  1  0  0  0
  1  3  2  0  0  0
  2  5  2  0  0  0
  4  6  2  0  0  0
  7 13  2  0  0  0
  8 12  2  0  0  0
  9 15  2  0  0  0
M  END
> <rmsd>
0.265957445

$$$$
ZINC92119732


 18 19  0  0  0  0  0  0  0  0999 V2000
    6.3456   -2.9685    2.3671 C   0  0  0  0  0
    5.1332   -3.6329    2.1817 C   0  0  0  0  0
    6.5340   -1.6967    1.8260 C   0  0  0  0  0
    4.2974   -1.7536    0.9139 C   0  0  0  0  0
    4.1091   -3.0254    1.4551 C   0  0  0  0  0
    5.5098   -1.0893    1.0994 C   0  0  0  0  0
    0.7965    3.2007    0.7976 C   0  0  0  0  0
    0.8759    1.1936    0.3023 C   0  0  0  0  0
    3.2270   -1.1186    0.1534 C   0  0  0  0  0
    0.6190    4.4252    1.5857 C   0  0  0  0  0
    0.8602   -0.3042    0.2011 C   0  0  0  0  0
    0.6221    1.9583    1.3341 N   0  0  0  0  0
    1.1393    3.2329   -0.4937 N   0  0  0  0  0
    2.0200   -0.9007    0.8240 N   0  0  0  0  0
    3.3990   -0.8150   -1.0382 O   0  0  0  0  0
    1.1935    1.8744   -0.8299 O   0  0  0  0  0
    2.9321   -3.6923    1.2869 O   0  0  0  0  0
    5.7148    0.1541    0.5800 O   0  0  0  0  0
  1  2  1  0  0  0
  3  6  1  0  0  0
  4  5  1  0  0  0
  4  9  1  0  0  0
  5 17  1  0  0  0
  6 18  1  0  0  0
  7 12  1  0  0  0
  8 16  1  0  0  0
  9 14  1  0  0  0
 10  7  1  0  0  0
 11  8  1  0  0  0
 11 14  1  0  0  0
 13 16  1  0  0  0
  1  3  2  0  0  0
  2  5  2  0  0  0
  4  6  2  0  0  0
  7 13  2  0  0  0
  8 12  2  0  0  0
  9 15  2  0  0  0
M  END
> <rmsd>
0.271799594

$$$$
ZINC92124803


 18 19  0  0  0  0  0  0  0  0999 V2000
    6.3939   -3.0812    2.1817 C   0  0  0  0  0
    5.1534   -3.7032    2.0402 C   0  0  0  0  0
    6.5889   -1.7927    1.6844 C   0  0  0  0  0
    4.3029   -1.7480    0.9039 C   0  0  0  0  0
    4.1079   -3.0365    1.4013 C   0  0  0  0  0
    5.5434   -1.1261    1.0454 C   0  0  0  0  0
    3.1897   -1.0382    0.2227 C   0  0  0  0  0
    1.7987    2.1263   -0.2694 C   0  0  0  0  0
    0.3012    2.2126   -0.3465 C   0  0  0  0  0
    0.9498    1.3106    0.6774 C   0  0  0  0  0
   -0.3815    1.5932    4.3007 C   0  0  0  0  0
    0.8999    1.7314    2.1205 C   0  0  0  0  0
    0.8752   -0.1751    0.4560 C   0  0  0  0  0
   -0.3469    1.1947    2.8339 C   0  0  0  0  0
    2.0401   -0.8232    0.9793 N   0  0  0  0  0
    3.3222   -0.7006   -0.9508 O   0  0  0  0  0
    2.9036   -3.6627    1.2747 O   0  0  0  0  0
    5.7555    0.1327    0.5676 O   0  0  0  0  0
  1  2  1  0  0  0
  3  6  1  0  0  0
  4  5  1  0  0  0
  4  7  1  0  0  0
  5 17  1  0  0  0
  6 18  1  0  0  0
  7 15  1  0  0  0
  8  9  1  0  0  0
  8 10  1  0  0  0
  9 10  1  0  0  0
 10 12  1  0  0  0
 10 13  1  0  0  0
 11 14  1  0  0  0
 12 14  1  0  0  0
 13 15  1  0  0  0
  1  3  2  0  0  0
  2  5  2  0  0  0
  4  6  2  0  0  0
  7 16  2  0  0  0
M  END
> <rmsd>
0.354758054

$$$$
ZINC92123889


 18 19  0  0  0  0  0  0  0  0999 V2000
    6.3001   -2.9175    2.4401 C   0  0  0  0  0
    5.0961   -3.5921    2.2380 C   0  0  0  0  0
    6.4945   -1.6546    1.8806 C   0  0  0  0  0
    4.2806   -1.7409    0.9169 C   0  0  0  0  0
    4.0864   -3.0038    1.4764 C   0  0  0  0  0
    5.4847   -1.0663    1.1190 C   0  0  0  0  0
    0.9337    1.1517    0.2521 C   0  0  0  0  0
    1.6315    3.1766   -0.0995 C   0  0  0  0  0
    3.2252   -1.1259    0.1199 C   0  0  0  0  0
    0.8535   -0.3246    0.0967 C   0  0  0  0  0
    0.1993    1.8501    1.0669 N   0  0  0  0  0
    1.8131    1.8656   -0.4797 N   0  0  0  0  0
    0.6180    3.1347    0.8670 N   0  0  0  0  0
    2.0014   -0.9030    0.7576 N   0  0  0  0  0
    2.2211    4.1643   -0.5106 O   0  0  0  0  0
    3.4239   -0.8428   -1.0726 O   0  0  0  0  0
    2.9173   -3.6804    1.2925 O   0  0  0  0  0
    5.6952    0.1688    0.5823 O   0  0  0  0  0
  1  2  1  0  0  0
  3  6  1  0  0  0
  4  5  1  0  0  0
  4  9  1  0  0  0
  5 17  1  0  0  0
  6 18  1  0  0  0
  7 12  1  0  0  0
  8 12  1  0  0  0
  8 13  1  0  0  0
  9 14  1  0  0  0
 10  7  1  0  0  0
 10 14  1  0  0  0
 13 11  1  0  0  0
  1  3  2  0  0  0
  2  5  2  0  0  0
  4  6  2  0  0  0
  7 11  2  0  0  0
  8 15  2  0  0  0
  9 16  2  0  0  0
M  END
> <rmsd>
0.31526354

$$$$
ZINC92120450


 17 18  0  0  0  0  0  0  0  0999 V2000
    6.3313   -2.9437    2.4031 C   0  0  0  0  0
    5.1251   -3.6167    2.2091 C   0  0  0  0  0
    6.5187   -1.6754    1.8533 C   0  0  0  0  0
   -0.1111    1.9433    0.8340 C   0  0  0  0  0
    1.7384    3.1437   -0.1359 C   0  0  0  0  0
    4.2934   -1.7533    0.9156 C   0  0  0  0  0
    4.1061   -3.0215    1.4654 C   0  0  0  0  0
    5.4996   -1.0803    1.1096 C   0  0  0  0  0
    0.8622    1.1684    0.2388 C   0  0  0  0  0
    3.2283   -1.1311    0.1372 C   0  0  0  0  0
    0.8564   -0.3304    0.1502 C   0  0  0  0  0
    1.9234    1.8550   -0.3182 N   0  0  0  0  0
    2.0123   -0.9146    0.7917 N   0  0  0  0  0
    3.4126   -0.8366   -1.0548 O   0  0  0  0  0
    2.9351   -3.6967    1.2891 O   0  0  0  0  0
    5.7035    0.1599    0.5821 O   0  0  0  0  0
    0.3100    3.6003    0.6982 S   0  0  0  0  0
  1  2  1  0  0  0
  3  8  1  0  0  0
  4 17  1  0  0  0
  5 17  1  0  0  0
  6  7  1  0  0  0
  6 10  1  0  0  0
  7 15  1  0  0  0
  8 16  1  0  0  0
  9 12  1  0  0  0
 10 13  1  0  0  0
 11  9  1  0  0  0
 11 13  1  0  0  0
  1  3  2  0  0  0
  2  7  2  0  0  0
  4  9  2  0  0  0
  5 12  2  0  0  0
  6  8  2  0  0  0
 10 14  2  0  0  0
M  END
> <rmsd>
0.283036023

$$$$
ZINC92120021


 18 19  0  0  0  0  0  0  0  0999 V2000
    6.4613   -3.0387    2.2682 C   0  0  0  0  0
    5.2512   -3.7125    2.1034 C   0  0  0  0  0
    6.6185   -1.7515    1.7543 C   0  0  0  0  0
    4.3554   -1.8120    0.9106 C   0  0  0  0  0
    4.1983   -3.0993    1.4246 C   0  0  0  0  0
    5.5656   -1.1382    1.0755 C   0  0  0  0  0
    3.2343   -1.1589    0.1870 C   0  0  0  0  0
   -0.4419    3.2416    0.5090 C   0  0  0  0  0
    0.5984    3.8043   -0.4531 C   0  0  0  0  0
   -0.4947    1.7200    0.4110 C   0  0  0  0  0
    1.9347    3.0958   -0.2764 C   0  0  0  0  0
    0.9068    1.1213    0.5507 C   0  0  0  0  0
    0.8815   -0.3865    0.3418 C   0  0  0  0  0
    2.0510   -0.9758    0.9055 N   0  0  0  0  0
    3.3861   -0.8352   -0.9881 O   0  0  0  0  0
    1.7844    1.6846   -0.4300 O   0  0  0  0  0
    3.0240   -3.7756    1.2759 O   0  0  0  0  0
    5.7404    0.1203    0.5821 O   0  0  0  0  0
  1  2  1  0  0  0
  3  6  1  0  0  0
  4  5  1  0  0  0
  4  7  1  0  0  0
  5 17  1  0  0  0
  6 18  1  0  0  0
  7 14  1  0  0  0
  8  9  1  0  0  0
  8 10  1  0  0  0
  9 11  1  0  0  0
 10 12  1  0  0  0
 11 16  1  0  0  0
 12 13  1  0  0  0
 12 16  1  0  0  0
 13 14  1  0  0  0
  1  3  2  0  0  0
  2  5  2  0  0  0
  4  6  2  0  0  0
  7 15  2  0  0  0
M  END
> <rmsd>
0.394014597

$$$$
ZINC92120024


 18 19  0  0  0  0  0  0  0  0999 V2000
    6.1993   -2.7239    2.6707 C   0  0  0  0  0
    5.0525   -3.4749    2.4127 C   0  0  0  0  0
    6.3739   -1.4839    2.0560 C   0  0  0  0  0
    4.2550   -1.7461    0.9252 C   0  0  0  0  0
    4.0804   -2.9860    1.5400 C   0  0  0  0  0
    5.4018   -0.9951    1.1833 C   0  0  0  0  0
    3.2201   -1.2255   -0.0048 C   0  0  0  0  0
    0.6367    2.9616    1.3100 C   0  0  0  0  0
    1.8842    3.4854    0.6073 C   0  0  0  0  0
    0.5879    1.4379    1.2493 C   0  0  0  0  0
    2.0083    2.8874   -0.7875 C   0  0  0  0  0
    0.7734    0.9490   -0.1891 C   0  0  0  0  0
    0.8392   -0.5709   -0.2471 C   0  0  0  0  0
    1.9417   -1.0403    0.5255 N   0  0  0  0  0
    3.5211   -1.0058   -1.1751 O   0  0  0  0  0
    1.9960    1.4611   -0.7305 O   0  0  0  0  0
    2.9671   -3.7360    1.3029 O   0  0  0  0  0
    5.5922    0.2193    0.5942 O   0  0  0  0  0
  1  2  1  0  0  0
  3  6  1  0  0  0
  4  5  1  0  0  0
  4  7  1  0  0  0
  5 17  1  0  0  0
  6 18  1  0  0  0
  7 14  1  0  0  0
  8  9  1  0  0  0
  8 10  1  0  0  0
  9 11  1  0  0  0
 10 12  1  0  0  0
 11 16  1  0  0  0
 12 13  1  0  0  0
 12 16  1  0  0  0
 13 14  1  0  0  0
  1  3  2  0  0  0
  2  5  2  0  0  0
  4  6  2  0  0  0
  7 15  2  0  0  0
M  END
> <rmsd>
0.504953802

$$$$
ZINC92124482


 18 19  0  0  0  0  0  0  0  0999 V2000
    6.3874   -3.1699    2.1775 C   0  0  0  0  0
    5.1240   -3.7453    2.0418 C   0  0  0  0  0
    6.6284   -1.8903    1.6771 C   0  0  0  0  0
    4.3427   -1.7617    0.9052 C   0  0  0  0  0
    4.1017   -3.0412    1.4056 C   0  0  0  0  0
    5.6060   -1.1863    1.0409 C   0  0  0  0  0
    3.2541   -1.0119    0.2270 C   0  0  0  0  0
    2.1602    2.9739    2.1811 C   0  0  0  0  0
    1.2388    1.7785    2.1848 C   0  0  0  0  0
    3.1089    2.6320    1.0545 C   0  0  0  0  0
    1.1266    1.4377    0.6990 C   0  0  0  0  0
   -0.0183    2.1957    0.0221 C   0  0  0  0  0
    0.9744   -0.0627    0.4676 C   0  0  0  0  0
    2.1102   -0.7493    0.9849 N   0  0  0  0  0
    3.3946   -0.6815   -0.9476 O   0  0  0  0  0
    2.3597    1.8753    0.0933 O   0  0  0  0  0
    2.8744   -3.6222    1.2848 O   0  0  0  0  0
    5.8630    0.0631    0.5601 O   0  0  0  0  0
  1  2  1  0  0  0
  3  6  1  0  0  0
  4  5  1  0  0  0
  4  7  1  0  0  0
  5 17  1  0  0  0
  6 18  1  0  0  0
  7 14  1  0  0  0
  8  9  1  0  0  0
  8 10  1  0  0  0
  9 11  1  0  0  0
 10 16  1  0  0  0
 11 12  1  0  0  0
 11 13  1  0  0  0
 11 16  1  0  0  0
 13 14  1  0  0  0
  1  3  2  0  0  0
  2  5  2  0  0  0
  4  6  2  0  0  0
  7 15  2  0  0  0
M  END
> <rmsd>
0.344865769

$$$$
ZINC92124483


 18 19  0  0  0  0  0  0  0  0999 V2000
    6.5330   -3.2103    1.9537 C   0  0  0  0  0
    5.2829   -3.8223    1.8622 C   0  0  0  0  0
    6.7004   -1.8971    1.5141 C   0  0  0  0  0
    4.3678   -1.8081    0.8913 C   0  0  0  0  0
    4.2003   -3.1213    1.3310 C   0  0  0  0  0
    5.6178   -1.1961    0.9828 C   0  0  0  0  0
    3.2150   -1.0615    0.3249 C   0  0  0  0  0
    0.1155    2.4310   -0.7864 C   0  0  0  0  0
   -0.1976    2.0616    0.6432 C   0  0  0  0  0
    1.6046    2.6854   -0.7230 C   0  0  0  0  0
    1.0481    1.2844    1.0685 C   0  0  0  0  0
    1.3727    1.4905    2.5451 C   0  0  0  0  0
    0.9254   -0.2096    0.7579 C   0  0  0  0  0
    2.1118   -0.8819    1.1643 N   0  0  0  0  0
    3.2707   -0.6617   -0.8351 O   0  0  0  0  0
    2.1357    1.8077    0.2796 O   0  0  0  0  0
    2.9873   -3.7384    1.2518 O   0  0  0  0  0
    5.8035    0.0864    0.5599 O   0  0  0  0  0
  1  2  1  0  0  0
  3  6  1  0  0  0
  4  5  1  0  0  0
  4  7  1  0  0  0
  5 17  1  0  0  0
  6 18  1  0  0  0
  7 14  1  0  0  0
  8  9  1  0  0  0
  8 10  1  0  0  0
  9 11  1  0  0  0
 10 16  1  0  0  0
 11 12  1  0  0  0
 11 13  1  0  0  0
 11 16  1  0  0  0
 13 14  1  0  0  0
  1  3  2  0  0  0
  2  5  2  0  0  0
  4  6  2  0  0  0
  7 15  2  0  0  0
M  END
> <rmsd>
0.33101666

$$$$
ZINC92120040


 18 19  0  0  0  0  0  0  0  0999 V2000
    6.5234   -3.0791    2.1218 C   0  0  0  0  0
    5.3091   -3.7524    1.9878 C   0  0  0  0  0
    6.6536   -1.7744    1.6458 C   0  0  0  0  0
    4.3555   -1.8166    0.9015 C   0  0  0  0  0
    4.2252   -3.1212    1.3777 C   0  0  0  0  0
    5.5697   -1.1432    1.0356 C   0  0  0  0  0
    3.2013   -1.1443    0.2511 C   0  0  0  0  0
    1.1410    3.2818   -0.1141 C   0  0  0  0  0
    1.7171    1.8842   -0.2141 C   0  0  0  0  0
   -0.3563    3.0456   -0.0596 C   0  0  0  0  0
    0.8808    1.1072    0.7923 C   0  0  0  0  0
   -1.3005    1.7572    1.8968 C   0  0  0  0  0
    0.8554   -0.3885    0.5361 C   0  0  0  0  0
    2.0520   -0.9919    1.0276 N   0  0  0  0  0
   -0.5134    1.6967    0.6234 N   0  0  0  0  0
    3.2999   -0.7802   -0.9179 O   0  0  0  0  0
    3.0477   -3.7975    1.2580 O   0  0  0  0  0
    5.7186    0.1322    0.5783 O   0  0  0  0  0
  1  2  1  0  0  0
  3  6  1  0  0  0
  4  5  1  0  0  0
  4  7  1  0  0  0
  5 17  1  0  0  0
  6 18  1  0  0  0
  7 14  1  0  0  0
  8  9  1  0  0  0
  8 10  1  0  0  0
  9 11  1  0  0  0
 10 15  1  0  0  0
 11 13  1  0  0  0
 11 15  1  0  0  0
 12 15  1  0  0  0
 13 14  1  0  0  0
  1  3  2  0  0  0
  2  5  2  0  0  0
  4  6  2  0  0  0
  7 16  2  0  0  0
M  CHG  1  15   1
M  END
> <rmsd>
0.371464968

$$$$
ZINC92123251


 18 18  0  0  0  0  0  0  0  0999 V2000
    6.3125   -2.8469    2.5261 C   0  0  0  0  0
    5.1409   -3.5698    2.3015 C   0  0  0  0  0
    6.4768   -1.5881    1.9482 C   0  0  0  0  0
    4.2981   -1.7749    0.9211 C   0  0  0  0  0
    4.1336   -3.0338    1.4990 C   0  0  0  0  0
    5.4697   -1.0521    1.1457 C   0  0  0  0  0
    3.2258   -1.2043    0.0658 C   0  0  0  0  0
    0.4333    3.2428   -0.0810 C   0  0  0  0  0
   -0.3044    2.0574    2.7180 C   0  0  0  0  0
    0.1015   -1.6496   -0.7050 C   0  0  0  0  0
    1.3626    2.4783    0.8521 C   0  0  0  0  0
   -0.0329    0.2951    0.9469 C   0  0  0  0  0
    0.6805    1.4141    1.7342 C   0  0  0  0  0
    0.8473   -0.5045   -0.0281 C   0  0  0  0  0
    1.9970   -1.0268    0.6790 N   0  0  0  0  0
    3.4696   -0.9462   -1.1100 O   0  0  0  0  0
    2.9965   -3.7570    1.2937 O   0  0  0  0  0
    5.6508    0.1799    0.5915 O   0  0  0  0  0
  1  2  1  0  0  0
  3  6  1  0  0  0
  4  5  1  0  0  0
  4  7  1  0  0  0
  5 17  1  0  0  0
  6 18  1  0  0  0
  7 15  1  0  0  0
  8 11  1  0  0  0
  9 13  1  0  0  0
 10 14  1  0  0  0
 11 13  1  0  0  0
 12 13  1  0  0  0
 12 14  1  0  0  0
 14 15  1  0  0  0
  1  3  2  0  0  0
  2  5  2  0  0  0
  4  6  2  0  0  0
  7 16  2  0  0  0
M  END
> <rmsd>
0.404373437

$$$$
ZINC92123251


 18 18  0  0  0  0  0  0  0  0999 V2000
    6.4090   -3.1706    2.2041 C   0  0  0  0  0
    5.1504   -3.7549    2.0620 C   0  0  0  0  0
    6.6457   -1.8926    1.6978 C   0  0  0  0  0
    4.3653   -1.7831    0.9075 C   0  0  0  0  0
    4.1285   -3.0612    1.4137 C   0  0  0  0  0
    5.6239   -1.1988    1.0495 C   0  0  0  0  0
    3.2773   -1.0444    0.2164 C   0  0  0  0  0
   -2.1755    1.4618    3.3353 C   0  0  0  0  0
   -0.3732    2.5777    0.0316 C   0  0  0  0  0
    0.0608   -1.1185   -0.2327 C   0  0  0  0  0
   -1.5598    2.3500    2.2627 C   0  0  0  0  0
    0.3044    0.6943    1.5514 C   0  0  0  0  0
   -0.8622    1.6024    1.1093 C   0  0  0  0  0
    0.9896   -0.1089    0.4334 C   0  0  0  0  0
    2.1440   -0.7957    0.9722 N   0  0  0  0  0
    3.4248   -0.7201   -0.9590 O   0  0  0  0  0
    2.9060   -3.6507    1.2869 O   0  0  0  0  0
    5.8767    0.0491    0.5633 O   0  0  0  0  0
  1  2  1  0  0  0
  3  6  1  0  0  0
  4  5  1  0  0  0
  4  7  1  0  0  0
  5 17  1  0  0  0
  6 18  1  0  0  0
  7 15  1  0  0  0
  8 11  1  0  0  0
  9 13  1  0  0  0
 10 14  1  0  0  0
 11 13  1  0  0  0
 12 13  1  0  0  0
 12 14  1  0  0  0
 14 15  1  0  0  0
  1  3  2  0  0  0
  2  5  2  0  0  0
  4  6  2  0  0  0
  7 16  2  0  0  0
M  END
> <rmsd>
0.491762787

$$$$
ZINC92123949


 18 18  0  0  0  0  0  0  0  0999 V2000
    6.4983   -3.1450    2.0222 C   0  0  0  0  0
    5.2521   -3.7503    1.8600 C   0  0  0  0  0
    6.6923   -1.8268    1.6097 C   0  0  0  0  0
    4.3940   -1.7191    0.8727 C   0  0  0  0  0
    4.1999   -3.0373    1.2853 C   0  0  0  0  0
    5.6402   -1.1138    1.0348 C   0  0  0  0  0
    3.2844   -0.9670    0.2657 C   0  0  0  0  0
    3.1740    3.6352   -0.9298 C   0  0  0  0  0
    2.0054   -1.3959    3.2257 C   0  0  0  0  0
    0.4572    2.8473    0.0292 C   0  0  0  0  0
    2.7861    2.1895   -0.6542 C   0  0  0  0  0
    2.7364   -0.2759    2.5670 C   0  0  0  0  0
    1.3258    0.5774    0.7282 C   0  0  0  0  0
    1.6966    2.0369    0.4247 C   0  0  0  0  0
    2.4467   -0.2275    1.1300 N   0  0  0  0  0
    3.1845   -1.0373   -0.9587 O   0  0  0  0  0
    2.9902   -3.6480    1.1372 O   0  0  0  0  0
    5.8514    0.1735    0.6395 O   0  0  0  0  0
  1  2  1  0  0  0
  3  6  1  0  0  0
  4  5  1  0  0  0
  4  7  1  0  0  0
  5 17  1  0  0  0
  6 18  1  0  0  0
  7 15  1  0  0  0
  8 11  1  0  0  0
  9 12  1  0  0  0
 10 14  1  0  0  0
 11 14  1  0  0  0
 12 15  1  0  0  0
 13 14  1  0  0  0
 13 15  1  0  0  0
  1  3  2  0  0  0
  2  5  2  0  0  0
  4  6  2  0  0  0
  7 16  2  0  0  0
M  END
> <rmsd>
0.420413196

$$$$
ZINC92123255


 18 18  0  0  0  0  0  0  0  0999 V2000
    6.2130   -2.7736    2.6236 C   0  0  0  0  0
    5.0473   -3.4990    2.3778 C   0  0  0  0  0
    6.4014   -1.5304    2.0196 C   0  0  0  0  0
    4.2584   -1.7383    0.9237 C   0  0  0  0  0
    4.0699   -2.9813    1.5277 C   0  0  0  0  0
    5.4240   -1.0128    1.1696 C   0  0  0  0  0
    3.2178   -1.1870    0.0177 C   0  0  0  0  0
   -0.7771    1.2047    3.6879 C   0  0  0  0  0
    1.1773    2.5189    0.5462 C   0  0  0  0  0
    0.1204   -1.6441   -0.8479 C   0  0  0  0  0
   -0.2637    2.1403    2.6019 C   0  0  0  0  0
   -0.0639    0.3428    0.7479 C   0  0  0  0  0
    0.6259    1.4798    1.5302 C   0  0  0  0  0
    0.8463   -0.4838   -0.1755 C   0  0  0  0  0
    1.9694   -0.9907    0.5837 N   0  0  0  0  0
    3.5026   -0.9600   -1.1552 O   0  0  0  0  0
    2.9380   -3.7067    1.3022 O   0  0  0  0  0
    5.6281    0.2041    0.5905 O   0  0  0  0  0
  1  2  1  0  0  0
  3  6  1  0  0  0
  4  5  1  0  0  0
  4  7  1  0  0  0
  5 17  1  0  0  0
  6 18  1  0  0  0
  7 15  1  0  0  0
  8 11  1  0  0  0
  9 13  1  0  0  0
 10 14  1  0  0  0
 11 13  1  0  0  0
 12 13  1  0  0  0
 12 14  1  0  0  0
 14 15  1  0  0  0
  1  3  2  0  0  0
  2  5  2  0  0  0
  4  6  2  0  0  0
  7 16  2  0  0  0
M  END
> <rmsd>
0.428578854

$$$$
ZINC92123255


 18 18  0  0  0  0  0  0  0  0999 V2000
    6.5517   -3.0871    2.0425 C   0  0  0  0  0
    5.3383   -3.7647    1.9245 C   0  0  0  0  0
    6.6641   -1.7734    1.5872 C   0  0  0  0  0
    4.3496   -1.8151    0.8955 C   0  0  0  0  0
    4.2373   -3.1288    1.3510 C   0  0  0  0  0
    5.5631   -1.1375    1.0137 C   0  0  0  0  0
    3.1772   -1.1378    0.2841 C   0  0  0  0  0
   -0.1683    3.8045    2.3108 C   0  0  0  0  0
    1.1872    2.5632   -0.2211 C   0  0  0  0  0
   -0.2905   -1.4303    0.6624 C   0  0  0  0  0
    1.2365    3.2228    2.2300 C   0  0  0  0  0
    0.5337    0.8423    1.4900 C   0  0  0  0  0
    1.4173    2.0768    1.2149 C   0  0  0  0  0
    0.8344   -0.4010    0.6366 C   0  0  0  0  0
    2.0622   -1.0146    1.0958 N   0  0  0  0  0
    3.2467   -0.7522   -0.8799 O   0  0  0  0  0
    3.0608   -3.8094    1.2464 O   0  0  0  0  0
    5.6947    0.1467    0.5761 O   0  0  0  0  0
  1  2  1  0  0  0
  3  6  1  0  0  0
  4  5  1  0  0  0
  4  7  1  0  0  0
  5 17  1  0  0  0
  6 18  1  0  0  0
  7 15  1  0  0  0
  8 11  1  0  0  0
  9 13  1  0  0  0
 10 14  1  0  0  0
 11 13  1  0  0  0
 12 13  1  0  0  0
 12 14  1  0  0  0
 14 15  1  0  0  0
  1  3  2  0  0  0
  2  5  2  0  0  0
  4  6  2  0  0  0
  7 16  2  0  0  0
M  END
> <rmsd>
0.445409149

$$$$
ZINC83251324


 18 18  0  0  0  0  0  0  0  0999 V2000
    0.6986    2.6708   -0.7015 C   0  0  0  0  0
    1.6113    1.6859   -0.3246 C   0  0  0  0  0
   -0.9996    1.6166    0.6556 C   0  0  0  0  0
   -0.6069    2.6364   -0.2114 C   0  0  0  0  0
    1.2187    0.6662    0.5425 C   0  0  0  0  0
   -0.0868    0.6316    1.0326 C   0  0  0  0  0
   -1.5701    3.6758   -0.6089 C   0  0  0  0  0
    3.9901   -1.8493    0.8951 C   0  0  0  0  0
    3.2137   -0.7895    0.1629 C   0  0  0  0  0
   -1.0364   -1.5334    1.2915 C   0  0  0  0  0
    5.2342   -1.5501    1.0969 N   0  0  0  0  0
    3.2889   -2.9721    1.2511 N   0  0  0  0  0
    2.1439   -0.3136    0.9101 N   0  0  0  0  0
   -2.7693    3.6207   -0.1424 O   0  0  0  0  0
   -1.1823    4.6063   -1.4104 O   0  0  0  0  0
    3.6052   -0.4894   -0.9523 O   0  0  0  0  0
    5.5101   -0.2890    0.5607 O   0  0  0  0  0
   -0.4906   -0.3555    1.8814 O   0  0  0  0  0
  1  4  1  0  0  0
  2  5  1  0  0  0
  3  6  1  0  0  0
  4  7  1  0  0  0
  5 13  1  0  0  0
  6 18  1  0  0  0
  7 14  1  0  0  0
  8  9  1  0  0  0
  8 12  1  0  0  0
  9 13  1  0  0  0
 10 18  1  0  0  0
 11 17  1  0  0  0
  1  2  2  0  0  0
  3  4  2  0  0  0
  5  6  2  0  0  0
  7 15  2  0  0  0
  8 11  2  0  0  0
  9 16  2  0  0  0
M  CHG  1  14  -1
M  END
> <rmsd>
0.425513536

$$$$
ZINC92123588


 18 18  0  0  0  0  0  0  0  0999 V2000
    6.4367   -3.2062    2.0785 C   0  0  0  0  0
    5.1719   -3.7828    1.9641 C   0  0  0  0  0
    6.6597   -1.9139    1.6033 C   0  0  0  0  0
    4.3528   -1.7749    0.8990 C   0  0  0  0  0
    4.1299   -3.0672    1.3743 C   0  0  0  0  0
    5.6177   -1.1982    1.0134 C   0  0  0  0  0
    3.2434   -1.0127    0.2702 C   0  0  0  0  0
    0.1087    2.1922   -0.1035 C   0  0  0  0  0
    0.5863    3.4046    4.2012 C   0  0  0  0  0
    0.7554    1.7358    2.3197 C   0  0  0  0  0
    0.9682   -0.0786    0.5975 C   0  0  0  0  0
    1.0586    1.4382    0.8336 C   0  0  0  0  0
    0.8939    3.2094    2.7214 C   0  0  0  0  0
    2.1312   -0.7798    1.0703 N   0  0  0  0  0
    3.3498   -0.6531   -0.8994 O   0  0  0  0  0
    2.9015   -3.6497    1.2736 O   0  0  0  0  0
    5.8574    0.0634    0.5566 O   0  0  0  0  0
    2.2270    3.6419    2.4681 O   0  0  0  0  0
  1  2  1  0  0  0
  3  6  1  0  0  0
  4  5  1  0  0  0
  4  7  1  0  0  0
  5 16  1  0  0  0
  6 17  1  0  0  0
  7 14  1  0  0  0
  8 12  1  0  0  0
  9 13  1  0  0  0
 10 12  1  0  0  0
 10 13  1  0  0  0
 11 12  1  0  0  0
 11 14  1  0  0  0
 13 18  1  0  0  0
  1  3  2  0  0  0
  2  5  2  0  0  0
  4  6  2  0  0  0
  7 15  2  0  0  0
M  END
> <rmsd>
0.330194354

$$$$
ZINC92125124


 18 18  0  0  0  0  0  0  0  0999 V2000
    6.4778   -3.2254    2.0521 C   0  0  0  0  0
    5.2158   -3.8093    1.9429 C   0  0  0  0  0
    6.6891   -1.9283    1.5846 C   0  0  0  0  0
    4.3761   -1.7989    0.8986 C   0  0  0  0  0
    4.1649   -3.0961    1.3661 C   0  0  0  0  0
    5.6381   -1.2151    1.0078 C   0  0  0  0  0
    3.2572   -1.0394    0.2837 C   0  0  0  0  0
    0.4097    2.1329   -1.4501 C   0  0  0  0  0
   -1.3586    1.8880    0.3093 C   0  0  0  0  0
    0.3003    3.7479    0.4490 C   0  0  0  0  0
    0.9786   -0.1223    0.6348 C   0  0  0  0  0
    1.0880    1.3844    0.8928 C   0  0  0  0  0
    0.1125    2.2664    0.0549 C   0  0  0  0  0
    2.1524   -0.8211    1.0949 N   0  0  0  0  0
    3.3526   -0.6706   -0.8840 O   0  0  0  0  0
    2.9395   -3.6856    1.2704 O   0  0  0  0  0
    5.8663    0.0513    0.5583 O   0  0  0  0  0
    0.8408    1.6107    2.2852 O   0  0  0  0  0
  1  2  1  0  0  0
  3  6  1  0  0  0
  4  5  1  0  0  0
  4  7  1  0  0  0
  5 16  1  0  0  0
  6 17  1  0  0  0
  7 14  1  0  0  0
  8 13  1  0  0  0
  9 13  1  0  0  0
 10 13  1  0  0  0
 11 12  1  0  0  0
 11 14  1  0  0  0
 12 13  1  0  0  0
 12 18  1  0  0  0
  1  3  2  0  0  0
  2  5  2  0  0  0
  4  6  2  0  0  0
  7 15  2  0  0  0
M  END
> <rmsd>
0.427317768

$$$$
ZINC92123188


 18 18  0  0  0  0  0  0  0  0999 V2000
    6.3736   -3.1856    2.1785 C   0  0  0  0  0
    5.1039   -3.7470    2.0440 C   0  0  0  0  0
    6.6287   -1.9093    1.6766 C   0  0  0  0  0
    4.3442   -1.7560    0.9056 C   0  0  0  0  0
    4.0892   -3.0322    1.4076 C   0  0  0  0  0
    5.6139   -1.1946    1.0402 C   0  0  0  0  0
    3.2637   -0.9949    0.2271 C   0  0  0  0  0
    1.5995    3.4427    2.2864 C   0  0  0  0  0
    0.1687    1.5524    3.0823 C   0  0  0  0  0
   -0.1625    2.1475    0.0341 C   0  0  0  0  0
    0.9947   -0.0204    0.4676 C   0  0  0  0  0
    1.3137    1.9401    2.1414 C   0  0  0  0  0
    1.0850    1.5075    0.6594 C   0  0  0  0  0
    2.1345   -0.7259    0.9904 N   0  0  0  0  0
    3.4073   -0.6673   -0.9478 O   0  0  0  0  0
    2.8554   -3.5997    1.2880 O   0  0  0  0  0
    5.8847    0.0512    0.5578 O   0  0  0  0  0
    2.1965    1.9685   -0.1248 O   0  0  0  0  0
  1  2  1  0  0  0
  3  6  1  0  0  0
  4  5  1  0  0  0
  4  7  1  0  0  0
  5 16  1  0  0  0
  6 17  1  0  0  0
  7 14  1  0  0  0
  8 12  1  0  0  0
  9 12  1  0  0  0
 10 13  1  0  0  0
 11 13  1  0  0  0
 11 14  1  0  0  0
 12 13  1  0  0  0
 13 18  1  0  0  0
  1  3  2  0  0  0
  2  5  2  0  0  0
  4  6  2  0  0  0
  7 15  2  0  0  0
M  END
> <rmsd>
0.399783909

$$$$
ZINC92123590


 18 18  0  0  0  0  0  0  0  0999 V2000
    6.4359   -3.2059    2.0796 C   0  0  0  0  0
    5.1710   -3.7825    1.9651 C   0  0  0  0  0
    6.6590   -1.9137    1.6042 C   0  0  0  0  0
    4.3522   -1.7746    0.8996 C   0  0  0  0  0
    4.1291   -3.0669    1.3750 C   0  0  0  0  0
    5.6171   -1.1980    1.0141 C   0  0  0  0  0
    3.2429   -1.0125    0.2705 C   0  0  0  0  0
    0.1085    2.1928   -0.1039 C   0  0  0  0  0
    2.3086    3.7159    2.4673 C   0  0  0  0  0
    0.7550    1.7366    2.3194 C   0  0  0  0  0
    0.9678   -0.0780    0.5975 C   0  0  0  0  0
    1.0583    1.4388    0.8334 C   0  0  0  0  0
    0.8935    3.2103    2.7209 C   0  0  0  0  0
    2.1307   -0.7793    1.0705 N   0  0  0  0  0
    3.3496   -0.6530   -0.8991 O   0  0  0  0  0
    2.9007   -3.6492    1.2743 O   0  0  0  0  0
    5.8569    0.0636    0.5571 O   0  0  0  0  0
    0.5973    3.3492    4.1070 O   0  0  0  0  0
  1  2  1  0  0  0
  3  6  1  0  0  0
  4  5  1  0  0  0
  4  7  1  0  0  0
  5 16  1  0  0  0
  6 17  1  0  0  0
  7 14  1  0  0  0
  8 12  1  0  0  0
  9 13  1  0  0  0
 10 12  1  0  0  0
 10 13  1  0  0  0
 11 12  1  0  0  0
 11 14  1  0  0  0
 13 18  1  0  0  0
  1  3  2  0  0  0
  2  5  2  0  0  0
  4  6  2  0  0  0
  7 15  2  0  0  0
M  END
> <rmsd>
0.32987386

$$$$
ZINC92124593


 17 18  0  0  0  0  0  0  0  0999 V2000
    6.3832   -3.1765    2.2030 C   0  0  0  0  0
    5.1181   -3.7468    2.0623 C   0  0  0  0  0
    6.6337   -1.9015    1.6958 C   0  0  0  0  0
    4.3541   -1.7671    0.9072 C   0  0  0  0  0
    4.1035   -3.0422    1.4144 C   0  0  0  0  0
    5.6193   -1.1968    1.0479 C   0  0  0  0  0
    3.2738   -1.0167    0.2165 C   0  0  0  0  0
    0.8879    3.2888    2.2241 C   0  0  0  0  0
    1.2511    1.8145    2.1289 C   0  0  0  0  0
   -0.4310    3.4544    1.4888 C   0  0  0  0  0
    1.1480    1.4404    0.6533 C   0  0  0  0  0
    0.9971   -0.0552    0.4349 C   0  0  0  0  0
    2.1280   -0.7448    0.9655 N   0  0  0  0  0
    3.4240   -0.6948   -0.9592 O   0  0  0  0  0
    2.8743   -3.6181    1.2889 O   0  0  0  0  0
    5.8856    0.0480    0.5606 O   0  0  0  0  0
   -0.3087    2.3556    0.0504 S   0  0  0  0  0
  1  2  1  0  0  0
  3  6  1  0  0  0
  4  5  1  0  0  0
  4  7  1  0  0  0
  5 15  1  0  0  0
  6 16  1  0  0  0
  7 13  1  0  0  0
  8  9  1  0  0  0
  8 10  1  0  0  0
  9 11  1  0  0  0
 10 17  1  0  0  0
 11 12  1  0  0  0
 11 17  1  0  0  0
 12 13  1  0  0  0
  1  3  2  0  0  0
  2  5  2  0  0  0
  4  6  2  0  0  0
  7 14  2  0  0  0
M  END
> <rmsd>
0.449041396

$$$$
ZINC92121352


 19 20  0  0  0  0  0  0  0  0999 V2000
    1.4748    3.7342   -0.5280 C   0  0  0  0  0
    1.1934    3.4088    0.7989 C   0  0  0  0  0
    1.5469    2.7290   -1.4923 C   0  0  0  0  0
    6.5189   -3.0726    2.0786 C   0  0  0  0  0
    0.9844    2.0782    1.1614 C   0  0  0  0  0
    1.3379    1.3984   -1.1298 C   0  0  0  0  0
    5.3036   -3.7456    1.9537 C   0  0  0  0  0
    6.6424   -1.7635    1.6132 C   0  0  0  0  0
    4.3351   -1.8003    0.8976 C   0  0  0  0  0
    1.0566    1.0730    0.1970 C   0  0  0  0  0
    4.2117   -3.1095    1.3632 C   0  0  0  0  0
    5.5505   -1.1274    1.0226 C   0  0  0  0  0
    3.1937   -1.1353    0.2795 C   0  0  0  0  0
    0.2316   -1.2005   -0.5446 C   0  0  0  0  0
    0.8300   -0.3710    0.5898 C   0  0  0  0  0
    2.0478   -0.9865    1.0661 N   0  0  0  0  0
    3.2560   -0.7478   -0.8985 O   0  0  0  0  0
    3.0331   -3.7854    1.2521 O   0  0  0  0  0
    5.6929    0.1523    0.5753 O   0  0  0  0  0
  1  2  1  0  0  0
  3  6  1  0  0  0
  4  7  1  0  0  0
  5 10  1  0  0  0
  8 12  1  0  0  0
  9 11  1  0  0  0
  9 13  1  0  0  0
 11 18  1  0  0  0
 12 19  1  0  0  0
 13 16  1  0  0  0
 14 15  1  0  0  0
 15 10  1  0  0  0
 15 16  1  0  0  0
  1  3  2  0  0  0
  2  5  2  0  0  0
  4  8  2  0  0  0
  6 10  2  0  0  0
  7 11  2  0  0  0
  9 12  2  0  0  0
 13 17  2  0  0  0
M  END
> <rmsd>
0.439664125

$$$$
ZINC92121350


 19 20  0  0  0  0  0  0  0  0999 V2000
    0.8726    3.9193    0.3743 C   0  0  0  0  0
    0.3698    3.2925   -0.7658 C   0  0  0  0  0
    1.3704    3.1540    1.4288 C   0  0  0  0  0
    6.3339   -2.9252    2.4313 C   0  0  0  0  0
    0.3646    1.9002   -0.8513 C   0  0  0  0  0
    1.3653    1.7617    1.3434 C   0  0  0  0  0
    5.1357   -3.6103    2.2305 C   0  0  0  0  0
    6.5148   -1.6587    1.8754 C   0  0  0  0  0
    4.2993   -1.7627    0.9174 C   0  0  0  0  0
    0.8624    1.1348    0.2033 C   0  0  0  0  0
    4.1183   -3.0292    1.4736 C   0  0  0  0  0
    5.4976   -1.0775    1.1184 C   0  0  0  0  0
    3.2359   -1.1551    0.1255 C   0  0  0  0  0
   -0.4298   -0.9900    0.6593 C   0  0  0  0  0
    0.8569   -0.3759    0.1113 C   0  0  0  0  0
    2.0119   -0.9455    0.7672 N   0  0  0  0  0
    3.4287   -0.8665   -1.0668 O   0  0  0  0  0
    2.9551   -3.7160    1.2908 O   0  0  0  0  0
    5.6951    0.1611    0.5849 O   0  0  0  0  0
  1  2  1  0  0  0
  3  6  1  0  0  0
  4  7  1  0  0  0
  5 10  1  0  0  0
  8 12  1  0  0  0
  9 11  1  0  0  0
  9 13  1  0  0  0
 11 18  1  0  0  0
 12 19  1  0  0  0
 13 16  1  0  0  0
 14 15  1  0  0  0
 15 10  1  0  0  0
 15 16  1  0  0  0
  1  3  2  0  0  0
  2  5  2  0  0  0
  4  8  2  0  0  0
  6 10  2  0  0  0
  7 11  2  0  0  0
  9 12  2  0  0  0
 13 17  2  0  0  0
M  END
> <rmsd>
0.290728331

$$$$
ZINC92126123


 17 17  0  0  0  0  0  0  0  0999 V2000
    6.2078   -2.8146    2.5638 C   0  0  0  0  0
    5.0213   -3.5108    2.3327 C   0  0  0  0  0
    6.4110   -1.5674    1.9731 C   0  0  0  0  0
    4.2414   -1.7125    0.9202 C   0  0  0  0  0
    4.0381   -2.9596    1.5110 C   0  0  0  0  0
    5.4278   -1.0164    1.1513 C   0  0  0  0  0
    3.1946   -1.1258    0.0444 C   0  0  0  0  0
    1.4062    2.0349    0.4999 C   0  0  0  0  0
   -1.8138   -0.1603    1.7328 C   0  0  0  0  0
    0.8358   -0.3678   -0.0885 C   0  0  0  0  0
    0.3383    0.9452    0.5144 C   0  0  0  0  0
    1.9556   -0.9065    0.6348 N   0  0  0  0  0
    3.4596   -0.8882   -1.1311 O   0  0  0  0  0
   -0.5761    1.9761    2.8063 O   0  0  0  0  0
    2.8858   -3.6567    1.2996 O   0  0  0  0  0
    5.6467    0.2039    0.5848 O   0  0  0  0  0
   -0.1907    0.6468    2.2468 S   0  0  0  0  0
  1  2  1  0  0  0
  3  6  1  0  0  0
  4  5  1  0  0  0
  4  7  1  0  0  0
  5 15  1  0  0  0
  6 16  1  0  0  0
  7 12  1  0  0  0
  8 11  1  0  0  0
  9 17  1  0  0  0
 10 11  1  0  0  0
 10 12  1  0  0  0
 11 17  1  0  0  0
  1  3  2  0  0  0
  2  5  2  0  0  0
  4  6  2  0  0  0
  7 13  2  0  0  0
 17 14  2  0  0  0
M  END
> <rmsd>
0.484870255

$$$$
ZINC92126126


 17 17  0  0  0  0  0  0  0  0999 V2000
    6.4307   -3.1969    2.0979 C   0  0  0  0  0
    5.1673   -3.7759    1.9792 C   0  0  0  0  0
    6.6542   -1.9062    1.6181 C   0  0  0  0  0
    4.3510   -1.7741    0.9008 C   0  0  0  0  0
    4.1274   -3.0647    1.3807 C   0  0  0  0  0
    5.6143   -1.1950    1.0195 C   0  0  0  0  0
    3.2437   -1.0166    0.2627 C   0  0  0  0  0
    0.1028    2.2106   -0.0829 C   0  0  0  0  0
    1.6124    3.4234    2.5468 C   0  0  0  0  0
    0.9654   -0.0845    0.5736 C   0  0  0  0  0
    1.0604    1.4227    0.8060 C   0  0  0  0  0
    2.1267   -0.7817    1.0556 N   0  0  0  0  0
    3.3559   -0.6619   -0.9080 O   0  0  0  0  0
    1.5274    0.8644    3.3793 O   0  0  0  0  0
    2.9005   -3.6494    1.2759 O   0  0  0  0  0
    5.8545    0.0651    0.5582 O   0  0  0  0  0
    0.6808    1.7858    2.5649 S   0  0  0  0  0
  1  2  1  0  0  0
  3  6  1  0  0  0
  4  5  1  0  0  0
  4  7  1  0  0  0
  5 15  1  0  0  0
  6 16  1  0  0  0
  7 12  1  0  0  0
  8 11  1  0  0  0
  9 17  1  0  0  0
 10 11  1  0  0  0
 10 12  1  0  0  0
 11 17  1  0  0  0
  1  3  2  0  0  0
  2  5  2  0  0  0
  4  6  2  0  0  0
  7 13  2  0  0  0
 17 14  2  0  0  0
M  END
> <rmsd>
0.325105757

$$$$
ZINC92126126


 17 17  0  0  0  0  0  0  0  0999 V2000
    6.2081   -2.8144    2.5641 C   0  0  0  0  0
    5.0218   -3.5106    2.3332 C   0  0  0  0  0
    6.4113   -1.5672    1.9733 C   0  0  0  0  0
    4.2417   -1.7126    0.9204 C   0  0  0  0  0
    4.0385   -2.9598    1.5113 C   0  0  0  0  0
    5.4281   -1.0165    1.1514 C   0  0  0  0  0
    3.1949   -1.1261    0.0445 C   0  0  0  0  0
    1.4066    2.0342    0.4992 C   0  0  0  0  0
   -1.7769    2.5667    0.9960 C   0  0  0  0  0
    0.8361   -0.3682   -0.0886 C   0  0  0  0  0
    0.3385    0.9448    0.5141 C   0  0  0  0  0
    1.9558   -0.9068    0.6347 N   0  0  0  0  0
    3.4601   -0.8888   -1.1311 O   0  0  0  0  0
   -2.0554    0.3636   -0.5264 O   0  0  0  0  0
    2.8863   -3.6569    1.2999 O   0  0  0  0  0
    5.6470    0.2039    0.5848 O   0  0  0  0  0
   -1.1232    1.5259   -0.4320 S   0  0  0  0  0
  1  2  1  0  0  0
  3  6  1  0  0  0
  4  5  1  0  0  0
  4  7  1  0  0  0
  5 15  1  0  0  0
  6 16  1  0  0  0
  7 12  1  0  0  0
  8 11  1  0  0  0
  9 17  1  0  0  0
 10 11  1  0  0  0
 10 12  1  0  0  0
 11 17  1  0  0  0
  1  3  2  0  0  0
  2  5  2  0  0  0
  4  6  2  0  0  0
  7 13  2  0  0  0
 17 14  2  0  0  0
M  END
> <rmsd>
0.484728217

$$$$
ZINC92126132


 17 17  0  0  0  0  0  0  0  0999 V2000
    6.2083   -2.8147    2.5644 C   0  0  0  0  0
    5.0219   -3.5109    2.3334 C   0  0  0  0  0
    6.4115   -1.5676    1.9735 C   0  0  0  0  0
    4.2419   -1.7129    0.9207 C   0  0  0  0  0
    4.0386   -2.9601    1.5116 C   0  0  0  0  0
    5.4283   -1.0168    1.1517 C   0  0  0  0  0
    3.1950   -1.1264    0.0448 C   0  0  0  0  0
    1.4067    2.0339    0.4995 C   0  0  0  0  0
   -2.2852    0.2844    0.3801 C   0  0  0  0  0
    0.8362   -0.3685   -0.0883 C   0  0  0  0  0
    0.3386    0.9445    0.5144 C   0  0  0  0  0
    1.9560   -0.9071    0.6350 N   0  0  0  0  0
    3.4602   -0.8891   -1.1308 O   0  0  0  0  0
   -1.5014    2.8491    0.1460 O   0  0  0  0  0
    2.8864   -3.6572    1.3002 O   0  0  0  0  0
    5.6472    0.2036    0.5851 O   0  0  0  0  0
   -1.1230    1.5256   -0.4318 S   0  0  0  0  0
  1  2  1  0  0  0
  3  6  1  0  0  0
  4  5  1  0  0  0
  4  7  1  0  0  0
  5 15  1  0  0  0
  6 16  1  0  0  0
  7 12  1  0  0  0
  8 11  1  0  0  0
  9 17  1  0  0  0
 10 11  1  0  0  0
 10 12  1  0  0  0
 11 17  1  0  0  0
  1  3  2  0  0  0
  2  5  2  0  0  0
  4  6  2  0  0  0
  7 13  2  0  0  0
 17 14  2  0  0  0
M  END
> <rmsd>
0.484728247

$$$$
ZINC92126130


 17 17  0  0  0  0  0  0  0  0999 V2000
    6.2082   -2.8148    2.5640 C   0  0  0  0  0
    5.0217   -3.5110    2.3331 C   0  0  0  0  0
    6.4113   -1.5677    1.9733 C   0  0  0  0  0
    4.2416   -1.7128    0.9206 C   0  0  0  0  0
    4.0384   -2.9600    1.5114 C   0  0  0  0  0
    5.4281   -1.0167    1.1516 C   0  0  0  0  0
    3.1947   -1.1261    0.0449 C   0  0  0  0  0
    1.4063    2.0345    0.5004 C   0  0  0  0  0
   -1.3317    2.1451    2.2781 C   0  0  0  0  0
    0.8359   -0.3682   -0.0878 C   0  0  0  0  0
    0.3385    0.9448    0.5151 C   0  0  0  0  0
    1.9557   -0.9069    0.6354 N   0  0  0  0  0
    3.4596   -0.8886   -1.1306 O   0  0  0  0  0
   -1.1011   -0.5361    2.2134 O   0  0  0  0  0
    2.8861   -3.6571    1.3001 O   0  0  0  0  0
    5.6468    0.2037    0.5851 O   0  0  0  0  0
   -0.1904    0.6464    2.2476 S   0  0  0  0  0
  1  2  1  0  0  0
  3  6  1  0  0  0
  4  5  1  0  0  0
  4  7  1  0  0  0
  5 15  1  0  0  0
  6 16  1  0  0  0
  7 12  1  0  0  0
  8 11  1  0  0  0
  9 17  1  0  0  0
 10 11  1  0  0  0
 10 12  1  0  0  0
 11 17  1  0  0  0
  1  3  2  0  0  0
  2  5  2  0  0  0
  4  6  2  0  0  0
  7 13  2  0  0  0
 17 14  2  0  0  0
M  END
> <rmsd>
0.484751374

$$$$
ZINC92126132


 17 17  0  0  0  0  0  0  0  0999 V2000
    6.3689   -3.1628    2.2108 C   0  0  0  0  0
    5.1044   -3.7339    2.0684 C   0  0  0  0  0
    6.6200   -1.8886    1.7016 C   0  0  0  0  0
    4.3421   -1.7569    0.9078 C   0  0  0  0  0
    4.0909   -3.0311    1.4170 C   0  0  0  0  0
    5.6066   -1.1858    1.0502 C   0  0  0  0  0
    3.2629   -1.0083    0.2134 C   0  0  0  0  0
   -0.1277    2.2054    0.0667 C   0  0  0  0  0
    2.0690    3.5055    2.1035 C   0  0  0  0  0
    0.9851   -0.0476    0.4248 C   0  0  0  0  0
    1.0874    1.4647    0.6171 C   0  0  0  0  0
    2.1237   -0.7408    0.9633 N   0  0  0  0  0
    3.4156   -0.6886   -0.9627 O   0  0  0  0  0
   -0.1181    2.1542    2.9020 O   0  0  0  0  0
    2.8623   -3.6077    1.2899 O   0  0  0  0  0
    5.8735    0.0583    0.5611 O   0  0  0  0  0
    1.2537    1.8343    2.4074 S   0  0  0  0  0
  1  2  1  0  0  0
  3  6  1  0  0  0
  4  5  1  0  0  0
  4  7  1  0  0  0
  5 15  1  0  0  0
  6 16  1  0  0  0
  7 12  1  0  0  0
  8 11  1  0  0  0
  9 17  1  0  0  0
 10 11  1  0  0  0
 10 12  1  0  0  0
 11 17  1  0  0  0
  1  3  2  0  0  0
  2  5  2  0  0  0
  4  6  2  0  0  0
  7 13  2  0  0  0
 17 14  2  0  0  0
M  END
> <rmsd>
0.378849417

$$$$
ZINC83251284


 17 17  0  0  0  0  0  0  0  0999 V2000
    1.6102    1.6859   -0.3242 C   0  0  0  0  0
   -1.0001    1.6150    0.6575 C   0  0  0  0  0
    0.6967    2.6704   -0.7004 C   0  0  0  0  0
    1.2187    0.6658    0.5429 C   0  0  0  0  0
   -0.0866    0.6304    1.0338 C   0  0  0  0  0
   -0.6085    2.6351   -0.2096 C   0  0  0  0  0
    3.9902   -1.8495    0.8957 C   0  0  0  0  0
    3.2138   -0.7897    0.1635 C   0  0  0  0  0
    1.1550    3.7455   -1.6323 C   0  0  0  0  0
   -1.0358   -1.5350    1.2901 C   0  0  0  0  0
    5.2344   -1.5501    1.0975 N   0  0  0  0  0
    3.2891   -2.9722    1.2518 N   0  0  0  0  0
    2.1438   -0.3140    0.9106 N   0  0  0  0  0
    3.6053   -0.4897   -0.9517 O   0  0  0  0  0
    5.5101   -0.2891    0.5612 O   0  0  0  0  0
   -0.4898   -0.3580    1.8814 O   0  0  0  0  0
   -1.7652    3.8372   -0.6524 Cl  0  0  0  0  0
  1  3  1  0  0  0
  2  6  1  0  0  0
  4  5  1  0  0  0
  4 13  1  0  0  0
  5 16  1  0  0  0
  6 17  1  0  0  0
  7  8  1  0  0  0
  7 12  1  0  0  0
  8 13  1  0  0  0
  9  3  1  0  0  0
 10 16  1  0  0  0
 11 15  1  0  0  0
  1  4  2  0  0  0
  2  5  2  0  0  0
  3  6  2  0  0  0
  7 11  2  0  0  0
  8 14  2  0  0  0
M  END
> <rmsd>
0.425635368

$$$$
ZINC92117480


 19 20  0  0  0  0  0  0  0  0999 V2000
    6.3261   -2.9261    2.4384 C   0  0  0  0  0
    0.4702    1.7509    1.4089 C   0  0  0  0  0
    5.1261   -3.6078    2.2361 C   0  0  0  0  0
    6.5125   -1.6614    1.8801 C   0  0  0  0  0
    0.4521    3.1389    1.4878 C   0  0  0  0  0
    1.1675    1.9408   -0.8570 C   0  0  0  0  0
    4.2988   -1.7602    0.9173 C   0  0  0  0  0
    0.8337    1.1326    0.2177 C   0  0  0  0  0
    4.1125   -3.0249    1.4756 C   0  0  0  0  0
    5.4989   -1.0786    1.1195 C   0  0  0  0  0
    0.8033    3.8574    0.3564 C   0  0  0  0  0
    3.2393   -1.1509    0.1214 C   0  0  0  0  0
    0.7952    5.3488    0.4054 C   0  0  0  0  0
    0.8628   -0.3639    0.1001 C   0  0  0  0  0
    1.1617    3.2922   -0.8182 N   0  0  0  0  0
    2.0145   -0.9360    0.7599 N   0  0  0  0  0
    3.4358   -0.8654   -1.0708 O   0  0  0  0  0
    2.9475   -3.7084    1.2915 O   0  0  0  0  0
    5.7017    0.1584    0.5840 O   0  0  0  0  0
  1  3  1  0  0  0
  2  8  1  0  0  0
  4 10  1  0  0  0
  5 11  1  0  0  0
  6 15  1  0  0  0
  7  9  1  0  0  0
  7 12  1  0  0  0
  9 18  1  0  0  0
 10 19  1  0  0  0
 12 16  1  0  0  0
 13 11  1  0  0  0
 14  8  1  0  0  0
 14 16  1  0  0  0
  1  4  2  0  0  0
  2  5  2  0  0  0
  3  9  2  0  0  0
  6  8  2  0  0  0
  7 10  2  0  0  0
 11 15  2  0  0  0
 12 17  2  0  0  0
M  END
> <rmsd>
0.277953178

$$$$
ZINC92103245


 19 20  0  0  0  0  0  0  0  0999 V2000
    6.3389   -3.0069    2.3797 C   0  0  0  0  0
    5.1209   -3.6692    2.2272 C   0  0  0  0  0
    6.5309   -1.7560    1.7932 C   0  0  0  0  0
    0.8051    1.1984   -1.3702 C   0  0  0  0  0
    0.6081    1.1888    1.0267 C   0  0  0  0  0
    0.7810    2.5826   -1.3128 C   0  0  0  0  0
    0.5930    2.5734    0.9769 C   0  0  0  0  0
    4.2867   -1.8296    0.9015 C   0  0  0  0  0
    0.7165    0.4957   -0.1738 C   0  0  0  0  0
    4.0948   -3.0806    1.4880 C   0  0  0  0  0
    5.5048   -1.1673    1.0540 C   0  0  0  0  0
    3.2141   -1.2143    0.1280 C   0  0  0  0  0
   -0.5360   -1.6211    0.4111 C   0  0  0  0  0
    0.7372   -1.0176   -0.1781 C   0  0  0  0  0
    0.6769    3.2908   -0.1659 N   0  0  0  0  0
    1.9048   -1.5282    0.5038 N   0  0  0  0  0
    3.4791   -0.4671   -0.8275 O   0  0  0  0  0
    2.9122   -3.7450    1.3526 O   0  0  0  0  0
    5.7133    0.0560    0.4903 O   0  0  0  0  0
  1  2  1  0  0  0
  3 11  1  0  0  0
  4  9  1  0  0  0
  5  7  1  0  0  0
  6 15  1  0  0  0
  8 10  1  0  0  0
  8 12  1  0  0  0
 10 18  1  0  0  0
 11 19  1  0  0  0
 12 16  1  0  0  0
 13 14  1  0  0  0
 14  9  1  0  0  0
 14 16  1  0  0  0
  1  3  2  0  0  0
  2 10  2  0  0  0
  4  6  2  0  0  0
  5  9  2  0  0  0
  7 15  2  0  0  0
  8 11  2  0  0  0
 12 17  2  0  0  0
M  END
> <rmsd>
0.344531059

$$$$
ZINC92121182


 19 20  0  0  0  0  0  0  0  0999 V2000
    6.3281   -2.9278    2.4309 C   0  0  0  0  0
    0.8929    3.8579    0.4159 C   0  0  0  0  0
    0.3003    3.2740   -0.6982 C   0  0  0  0  0
    5.1275   -3.6089    2.2303 C   0  0  0  0  0
    6.5133   -1.6621    1.8746 C   0  0  0  0  0
    1.4439    3.0197    1.3717 C   0  0  0  0  0
    4.2972   -1.7587    0.9172 C   0  0  0  0  0
    0.2772    1.8892   -0.8208 C   0  0  0  0  0
    4.1120   -3.0244    1.4735 C   0  0  0  0  0
    5.4978   -1.0776    1.1177 C   0  0  0  0  0
    0.8559    1.1390    0.1903 C   0  0  0  0  0
    3.2357   -1.1476    0.1252 C   0  0  0  0  0
   -0.3559    1.2577   -2.0120 C   0  0  0  0  0
    0.8593   -0.3603    0.1114 C   0  0  0  0  0
    1.4406    1.6704    1.2873 N   0  0  0  0  0
    2.0126   -0.9338    0.7671 N   0  0  0  0  0
    3.4293   -0.8599   -1.0670 O   0  0  0  0  0
    2.9465   -3.7074    1.2910 O   0  0  0  0  0
    5.6995    0.1604    0.5841 O   0  0  0  0  0
  1  4  1  0  0  0
  2  6  1  0  0  0
  3  8  1  0  0  0
  5 10  1  0  0  0
  7  9  1  0  0  0
  7 12  1  0  0  0
  9 18  1  0  0  0
 10 19  1  0  0  0
 11 15  1  0  0  0
 12 16  1  0  0  0
 13  8  1  0  0  0
 14 11  1  0  0  0
 14 16  1  0  0  0
  1  5  2  0  0  0
  2  3  2  0  0  0
  4  9  2  0  0  0
  6 15  2  0  0  0
  7 10  2  0  0  0
  8 11  2  0  0  0
 12 17  2  0  0  0
M  END
> <rmsd>
0.281363219

$$$$
ZINC92103246


 19 20  0  0  0  0  0  0  0  0999 V2000
    6.5185   -3.0726    2.0792 C   0  0  0  0  0
    5.3031   -3.7454    1.9541 C   0  0  0  0  0
    6.6421   -1.7635    1.6138 C   0  0  0  0  0
    1.5890    1.9713    1.1154 C   0  0  0  0  0
    0.7342    1.5073   -1.0843 C   0  0  0  0  0
    1.7779    3.2817    0.7068 C   0  0  0  0  0
    0.9613    2.8384   -1.3944 C   0  0  0  0  0
    4.3350   -1.8001    0.8978 C   0  0  0  0  0
    1.0567    1.0734    0.1968 C   0  0  0  0  0
    4.2114   -3.1093    1.3633 C   0  0  0  0  0
    5.5504   -1.1273    1.0230 C   0  0  0  0  0
    3.1937   -1.1350    0.2795 C   0  0  0  0  0
    0.2318   -1.1999   -0.5450 C   0  0  0  0  0
    0.8300   -0.3706    0.5894 C   0  0  0  0  0
    1.4767    3.7400   -0.5289 N   0  0  0  0  0
    2.0477   -0.9861    1.0660 N   0  0  0  0  0
    3.2563   -0.7475   -0.8985 O   0  0  0  0  0
    3.0327   -3.7851    1.2521 O   0  0  0  0  0
    5.6929    0.1525    0.5758 O   0  0  0  0  0
  1  2  1  0  0  0
  3 11  1  0  0  0
  4  9  1  0  0  0
  5  7  1  0  0  0
  6 15  1  0  0  0
  8 10  1  0  0  0
  8 12  1  0  0  0
 10 18  1  0  0  0
 11 19  1  0  0  0
 12 16  1  0  0  0
 13 14  1  0  0  0
 14  9  1  0  0  0
 14 16  1  0  0  0
  1  3  2  0  0  0
  2 10  2  0  0  0
  4  6  2  0  0  0
  5  9  2  0  0  0
  7 15  2  0  0  0
  8 11  2  0  0  0
 12 17  2  0  0  0
M  END
> <rmsd>
0.439518481

$$$$
ZINC92125137


 19 20  0  0  0  0  0  0  0  0999 V2000
    6.3308   -2.9364    2.4199 C   0  0  0  0  0
    5.1277   -3.6138    2.2219 C   0  0  0  0  0
    6.5174   -1.6698    1.8661 C   0  0  0  0  0
    0.8618    3.8318    0.3569 C   0  0  0  0  0
    0.5403    3.0361    1.4376 C   0  0  0  0  0
    4.2977   -1.7580    0.9164 C   0  0  0  0  0
    4.1111   -3.0247    1.4701 C   0  0  0  0  0
    5.5008   -1.0807    1.1143 C   0  0  0  0  0
    1.1832    3.1597   -0.8047 C   0  0  0  0  0
    0.8616    1.1508    0.2090 C   0  0  0  0  0
    3.2351   -1.1421    0.1297 C   0  0  0  0  0
    0.8608   -0.3484    0.1264 C   0  0  0  0  0
    0.5302    1.6874    1.3988 N   0  0  0  0  0
    1.1935    1.8150   -0.9144 N   0  0  0  0  0
    1.5181    3.9408   -1.9379 N   0  0  0  0  0
    2.0148   -0.9266    0.7766 N   0  0  0  0  0
    3.4252   -0.8519   -1.0624 O   0  0  0  0  0
    2.9430   -3.7040    1.2901 O   0  0  0  0  0
    5.7040    0.1581    0.5831 O   0  0  0  0  0
  1  2  1  0  0  0
  3  8  1  0  0  0
  4  5  1  0  0  0
  6  7  1  0  0  0
  6 11  1  0  0  0
  7 18  1  0  0  0
  8 19  1  0  0  0
  9 14  1  0  0  0
  9 15  1  0  0  0
 10 13  1  0  0  0
 11 16  1  0  0  0
 12 10  1  0  0  0
 12 16  1  0  0  0
  1  3  2  0  0  0
  2  7  2  0  0  0
  4  9  2  0  0  0
  5 13  2  0  0  0
  6  8  2  0  0  0
 10 14  2  0  0  0
 11 17  2  0  0  0
M  END
> <rmsd>
0.273570329

$$$$
ZINC92125137


 19 20  0  0  0  0  0  0  0  0999 V2000
    6.3304   -2.9361    2.4200 C   0  0  0  0  0
    5.1274   -3.6135    2.2219 C   0  0  0  0  0
    6.5170   -1.6695    1.8662 C   0  0  0  0  0
    0.8642    3.8316    0.3565 C   0  0  0  0  0
    1.1849    3.1592   -0.8052 C   0  0  0  0  0
    4.2973   -1.7579    0.9164 C   0  0  0  0  0
    4.1108   -3.0245    1.4701 C   0  0  0  0  0
    5.5004   -1.0805    1.1143 C   0  0  0  0  0
    0.5419    3.0363    1.4371 C   0  0  0  0  0
    0.8611    1.1506    0.2087 C   0  0  0  0  0
    3.2347   -1.1421    0.1296 C   0  0  0  0  0
    0.8603   -0.3485    0.1261 C   0  0  0  0  0
    1.1934    1.8145   -0.9149 N   0  0  0  0  0
    0.5299    1.6878    1.3984 N   0  0  0  0  0
    0.2077    3.6885    2.6493 N   0  0  0  0  0
    2.0144   -0.9267    0.7763 N   0  0  0  0  0
    3.4248   -0.8519   -1.0626 O   0  0  0  0  0
    2.9428   -3.7040    1.2901 O   0  0  0  0  0
    5.7035    0.1583    0.5831 O   0  0  0  0  0
  1  2  1  0  0  0
  3  8  1  0  0  0
  4  5  1  0  0  0
  6  7  1  0  0  0
  6 11  1  0  0  0
  7 18  1  0  0  0
  8 19  1  0  0  0
  9 14  1  0  0  0
  9 15  1  0  0  0
 10 13  1  0  0  0
 11 16  1  0  0  0
 12 10  1  0  0  0
 12 16  1  0  0  0
  1  3  2  0  0  0
  2  7  2  0  0  0
  4  9  2  0  0  0
  5 13  2  0  0  0
  6  8  2  0  0  0
 10 14  2  0  0  0
 11 17  2  0  0  0
M  END
> <rmsd>
0.273859024

$$$$
ZINC92121956


 19 20  0  0  0  0  0  0  0  0999 V2000
    6.3230   -2.9416    2.4163 C   0  0  0  0  0
    5.1162   -3.6128    2.2198 C   0  0  0  0  0
    6.5152   -1.6757    1.8628 C   0  0  0  0  0
    1.1876    2.0783   -0.8278 C   0  0  0  0  0
    4.2938   -1.7525    0.9159 C   0  0  0  0  0
    0.8716    1.1739    0.2141 C   0  0  0  0  0
    4.1016   -3.0182    1.4695 C   0  0  0  0  0
    5.5006   -1.0812    1.1125 C   0  0  0  0  0
    1.0604    3.3384   -0.2914 C   0  0  0  0  0
    0.5740    1.9460    1.3129 C   0  0  0  0  0
    3.2333   -1.1308    0.1309 C   0  0  0  0  0
    1.2448    4.6887   -0.8412 C   0  0  0  0  0
    0.1739    1.6285    2.6917 C   0  0  0  0  0
    0.8630   -0.3251    0.1309 C   0  0  0  0  0
    2.0150   -0.9094    0.7794 N   0  0  0  0  0
    3.4232   -0.8411   -1.0614 O   0  0  0  0  0
    0.6868    3.2666    1.0132 O   0  0  0  0  0
    2.9299   -3.6916    1.2909 O   0  0  0  0  0
    5.7093    0.1567    0.5814 O   0  0  0  0  0
  1  2  1  0  0  0
  3  8  1  0  0  0
  4  6  1  0  0  0
  5  7  1  0  0  0
  5 11  1  0  0  0
  7 18  1  0  0  0
  8 19  1  0  0  0
  9 17  1  0  0  0
 10 17  1  0  0  0
 11 15  1  0  0  0
 12  9  1  0  0  0
 13 10  1  0  0  0
 14  6  1  0  0  0
 14 15  1  0  0  0
  1  3  2  0  0  0
  2  7  2  0  0  0
  4  9  2  0  0  0
  5  8  2  0  0  0
  6 10  2  0  0  0
 11 16  2  0  0  0
M  END
> <rmsd>
0.266716838

$$$$
ZINC92121956


 19 20  0  0  0  0  0  0  0  0999 V2000
    6.3246   -2.9423    2.4141 C   0  0  0  0  0
    5.1178   -3.6136    2.2180 C   0  0  0  0  0
    6.5163   -1.6761    1.8612 C   0  0  0  0  0
    0.5655    1.9600    1.3548 C   0  0  0  0  0
    4.2942   -1.7526    0.9159 C   0  0  0  0  0
    0.8711    1.1737    0.2184 C   0  0  0  0  0
    4.1026   -3.0187    1.4689 C   0  0  0  0  0
    5.5011   -1.0813    1.1120 C   0  0  0  0  0
    0.7069    3.2706    0.9618 C   0  0  0  0  0
    1.1773    2.0598   -0.7881 C   0  0  0  0  0
    3.2330   -1.1306    0.1320 C   0  0  0  0  0
    0.5381    4.5533    1.6585 C   0  0  0  0  0
    1.5737    1.8932   -2.1942 C   0  0  0  0  0
    0.8627   -0.3253    0.1343 C   0  0  0  0  0
    2.0152   -0.9098    0.7816 N   0  0  0  0  0
    3.4221   -0.8402   -1.0602 O   0  0  0  0  0
    1.0796    3.3401   -0.3431 O   0  0  0  0  0
    2.9308   -3.6922    1.2907 O   0  0  0  0  0
    5.7092    0.1569    0.5815 O   0  0  0  0  0
  1  2  1  0  0  0
  3  8  1  0  0  0
  4  6  1  0  0  0
  5  7  1  0  0  0
  5 11  1  0  0  0
  7 18  1  0  0  0
  8 19  1  0  0  0
  9 17  1  0  0  0
 10 17  1  0  0  0
 11 15  1  0  0  0
 12  9  1  0  0  0
 13 10  1  0  0  0
 14  6  1  0  0  0
 14 15  1  0  0  0
  1  3  2  0  0  0
  2  7  2  0  0  0
  4  9  2  0  0  0
  5  8  2  0  0  0
  6 10  2  0  0  0
 11 16  2  0  0  0
M  END
> <rmsd>
0.267389774

$$$$
ZINC92126413


 19 20  0  0  0  0  0  0  0  0999 V2000
    6.3320   -2.9480    2.4027 C   0  0  0  0  0
    5.1247   -3.6191    2.2091 C   0  0  0  0  0
    6.5211   -1.6802    1.8528 C   0  0  0  0  0
    1.1752    2.0910   -0.7828 C   0  0  0  0  0
    4.2957   -1.7546    0.9155 C   0  0  0  0  0
    0.8690    1.1725    0.2391 C   0  0  0  0  0
    4.1065   -3.0224    1.4654 C   0  0  0  0  0
    5.5030   -1.0835    1.1092 C   0  0  0  0  0
    0.5809    1.9561    1.3299 C   0  0  0  0  0
    3.2314   -1.1307    0.1373 C   0  0  0  0  0
    0.1886    1.6016    2.7071 C   0  0  0  0  0
    0.5325    4.4414    1.6984 C   0  0  0  0  0
    0.8608   -0.3262    0.1507 C   0  0  0  0  0
    1.0895    3.3608   -0.3777 N   0  0  0  0  0
    0.7261    3.2459    0.9111 N   0  0  0  0  0
    2.0158   -0.9122    0.7920 N   0  0  0  0  0
    3.4160   -0.8367   -1.0547 O   0  0  0  0  0
    2.9343   -3.6958    1.2896 O   0  0  0  0  0
    5.7088    0.1564    0.5815 O   0  0  0  0  0
  1  2  1  0  0  0
  3  8  1  0  0  0
  4  6  1  0  0  0
  5  7  1  0  0  0
  5 10  1  0  0  0
  7 18  1  0  0  0
  8 19  1  0  0  0
  9 15  1  0  0  0
 10 16  1  0  0  0
 11  9  1  0  0  0
 12 15  1  0  0  0
 13  6  1  0  0  0
 13 16  1  0  0  0
 15 14  1  0  0  0
  1  3  2  0  0  0
  2  7  2  0  0  0
  4 14  2  0  0  0
  5  8  2  0  0  0
  6  9  2  0  0  0
 10 17  2  0  0  0
M  END
> <rmsd>
0.268823683

$$$$
ZINC92126413


 19 20  0  0  0  0  0  0  0  0999 V2000
    6.3152   -2.9349    2.4287 C   0  0  0  0  0
    5.1092   -3.6067    2.2296 C   0  0  0  0  0
    6.5097   -1.6708    1.8720 C   0  0  0  0  0
    0.5670    1.9765    1.3075 C   0  0  0  0  0
    4.2920   -1.7505    0.9167 C   0  0  0  0  0
    0.8727    1.1737    0.1922 C   0  0  0  0  0
    4.0976   -3.0145    1.4735 C   0  0  0  0  0
    5.4980   -1.0787    1.1159 C   0  0  0  0  0
    1.1787    2.0700   -0.8025 C   0  0  0  0  0
    3.2346   -1.1313    0.1255 C   0  0  0  0  0
    1.5797    1.8661   -2.2074 C   0  0  0  0  0
    1.2565    4.5803   -0.8922 C   0  0  0  0  0
    0.8644   -0.3256    0.1137 C   0  0  0  0  0
    0.6696    3.2823    1.0466 N   0  0  0  0  0
    1.0434    3.3070   -0.2441 N   0  0  0  0  0
    2.0138   -0.9079    0.7685 N   0  0  0  0  0
    3.4293   -0.8454   -1.0669 O   0  0  0  0  0
    2.9266   -3.6885    1.2923 O   0  0  0  0  0
    5.7089    0.1576    0.5817 O   0  0  0  0  0
  1  2  1  0  0  0
  3  8  1  0  0  0
  4  6  1  0  0  0
  5  7  1  0  0  0
  5 10  1  0  0  0
  7 18  1  0  0  0
  8 19  1  0  0  0
  9 15  1  0  0  0
 10 16  1  0  0  0
 11  9  1  0  0  0
 12 15  1  0  0  0
 13  6  1  0  0  0
 13 16  1  0  0  0
 15 14  1  0  0  0
  1  3  2  0  0  0
  2  7  2  0  0  0
  4 14  2  0  0  0
  5  8  2  0  0  0
  6  9  2  0  0  0
 10 17  2  0  0  0
M  END
> <rmsd>
0.26618129

$$$$
ZINC92120467


 19 20  0  0  0  0  0  0  0  0999 V2000
    6.3168   -2.9362    2.4263 C   0  0  0  0  0
    5.1107   -3.6080    2.2275 C   0  0  0  0  0
    6.5108   -1.6718    1.8703 C   0  0  0  0  0
    4.2925   -1.7510    0.9164 C   0  0  0  0  0
    0.8725    1.1735    0.1962 C   0  0  0  0  0
    4.0985   -3.0154    1.4725 C   0  0  0  0  0
    5.4986   -1.0791    1.1153 C   0  0  0  0  0
    0.5692    1.9837    1.3068 C   0  0  0  0  0
    1.1808    2.0631   -0.8038 C   0  0  0  0  0
    3.2345   -1.1313    0.1264 C   0  0  0  0  0
    0.1686    1.5521    2.6578 C   0  0  0  0  0
    1.5846    1.8720   -2.2071 C   0  0  0  0  0
    0.8642   -0.3258    0.1167 C   0  0  0  0  0
    0.6754    3.2878    1.0381 N   0  0  0  0  0
    1.0490    3.3037   -0.2528 N   0  0  0  0  0
    2.0141   -0.9084    0.7704 N   0  0  0  0  0
    3.4283   -0.8446   -1.0660 O   0  0  0  0  0
    2.9274   -3.6893    1.2918 O   0  0  0  0  0
    5.7090    0.1574    0.5818 O   0  0  0  0  0
  1  2  1  0  0  0
  3  7  1  0  0  0
  4  6  1  0  0  0
  4 10  1  0  0  0
  5  8  1  0  0  0
  6 18  1  0  0  0
  7 19  1  0  0  0
  9 15  1  0  0  0
 10 16  1  0  0  0
 11  8  1  0  0  0
 12  9  1  0  0  0
 13  5  1  0  0  0
 13 16  1  0  0  0
 15 14  1  0  0  0
  1  3  2  0  0  0
  2  6  2  0  0  0
  4  7  2  0  0  0
  5  9  2  0  0  0
  8 14  2  0  0  0
 10 17  2  0  0  0
M  END
> <rmsd>
0.266533017

$$$$
ZINC92123393


 19 21  0  0  0  0  0  0  0  0999 V2000
    6.5647   -3.2263    1.9416 C   0  0  0  0  0
    5.3169   -3.8432    1.8523 C   0  0  0  0  0
    6.7252   -1.9109    1.5057 C   0  0  0  0  0
    4.3901   -1.8297    0.8912 C   0  0  0  0  0
    4.2296   -3.1448    1.3272 C   0  0  0  0  0
    5.6379   -1.2126    0.9805 C   0  0  0  0  0
    3.2323   -1.0859    0.3313 C   0  0  0  0  0
    0.2484    3.5208   -0.0354 C   0  0  0  0  0
    0.4038    2.5285   -1.1538 C   0  0  0  0  0
    1.9313    1.3379    3.5281 C   0  0  0  0  0
    1.4990    2.7363    3.1861 C   0  0  0  0  0
    0.0150    2.0576    0.2203 C   0  0  0  0  0
    0.8069    1.5600    2.5548 C   0  0  0  0  0
    0.9398   -0.2466    0.7745 C   0  0  0  0  0
    1.0039    1.2569    1.0688 C   0  0  0  0  0
    2.1788   -0.9413    1.1910 N   0  0  0  0  0
    3.2823   -0.6819   -0.8274 O   0  0  0  0  0
    3.0190   -3.7668    1.2502 O   0  0  0  0  0
    5.8168    0.0720    0.5613 O   0  0  0  0  0
  1  2  1  0  0  0
  3  6  1  0  0  0
  4  5  1  0  0  0
  4  7  1  0  0  0
  5 18  1  0  0  0
  6 19  1  0  0  0
  7 16  1  0  0  0
  8  9  1  0  0  0
  8 12  1  0  0  0
  9 12  1  0  0  0
 10 11  1  0  0  0
 10 13  1  0  0  0
 11 13  1  0  0  0
 12 15  1  0  0  0
 13 15  1  0  0  0
 14 15  1  0  0  0
 14 16  1  0  0  0
  1  3  2  0  0  0
  2  5  2  0  0  0
  4  6  2  0  0  0
  7 17  2  0  0  0
M  END
> <rmsd>
0.417011887

$$$$
ZINC92125957


 19 20  0  0  0  0  0  0  0  0999 V2000
    6.3364   -2.9358    2.4175 C   0  0  0  0  0
    0.8720    3.8683    0.3113 C   0  0  0  0  0
    5.1346   -3.6156    2.2199 C   0  0  0  0  0
    6.5199   -1.6684    1.8647 C   0  0  0  0  0
    0.5347    3.1469    1.4511 C   0  0  0  0  0
    1.1889    3.1581   -0.8356 C   0  0  0  0  0
    4.2996   -1.7605    0.9165 C   0  0  0  0  0
    4.1162   -3.0280    1.4694 C   0  0  0  0  0
    5.5015   -1.0808    1.1141 C   0  0  0  0  0
    0.5248    1.7571    1.4099 C   0  0  0  0  0
    0.8571    1.1415    0.2138 C   0  0  0  0  0
    3.2352   -1.1462    0.1310 C   0  0  0  0  0
    0.8592   -0.3575    0.1299 C   0  0  0  0  0
    1.1901    1.8086   -0.9139 N   0  0  0  0  0
    2.0149   -0.9339    0.7789 N   0  0  0  0  0
    3.4238   -0.8546   -1.0611 O   0  0  0  0  0
    2.9494   -3.7097    1.2896 O   0  0  0  0  0
    5.7016    0.1588    0.5836 O   0  0  0  0  0
    0.2031    1.0461    2.4974 F   0  0  0  0  0
  1  3  1  0  0  0
  2  5  1  0  0  0
  4  9  1  0  0  0
  6 14  1  0  0  0
  7  8  1  0  0  0
  7 12  1  0  0  0
  8 17  1  0  0  0
  9 18  1  0  0  0
 10 11  1  0  0  0
 10 19  1  0  0  0
 12 15  1  0  0  0
 13 11  1  0  0  0
 13 15  1  0  0  0
  1  4  2  0  0  0
  2  6  2  0  0  0
  3  8  2  0  0  0
  5 10  2  0  0  0
  7  9  2  0  0  0
 11 14  2  0  0  0
 12 16  2  0  0  0
M  END
> <rmsd>
0.278638124

$$$$
ZINC92125957


 19 20  0  0  0  0  0  0  0  0999 V2000
    6.3305   -2.9321    2.4257 C   0  0  0  0  0
    0.8357    3.8629    0.3992 C   0  0  0  0  0
    5.1291   -3.6120    2.2263 C   0  0  0  0  0
    6.5160   -1.6660    1.8706 C   0  0  0  0  0
    1.1781    3.2713   -0.8117 C   0  0  0  0  0
    0.5179    3.0308    1.4605 C   0  0  0  0  0
    4.2983   -1.7596    0.9165 C   0  0  0  0  0
    4.1129   -3.0258    1.4717 C   0  0  0  0  0
    5.4998   -1.0798    1.1159 C   0  0  0  0  0
    1.1920    1.8854   -0.9226 C   0  0  0  0  0
    0.8585    1.1418    0.1979 C   0  0  0  0  0
    3.2362   -1.1468    0.1267 C   0  0  0  0  0
    0.8604   -0.3574    0.1174 C   0  0  0  0  0
    0.5204    1.6807    1.3909 N   0  0  0  0  0
    2.0142   -0.9326    0.7708 N   0  0  0  0  0
    3.4281   -0.8578   -1.0654 O   0  0  0  0  0
    2.9465   -3.7075    1.2903 O   0  0  0  0  0
    5.7017    0.1585    0.5833 O   0  0  0  0  0
    1.5185    1.2984   -2.0804 F   0  0  0  0  0
  1  3  1  0  0  0
  2  5  1  0  0  0
  4  9  1  0  0  0
  6 14  1  0  0  0
  7  8  1  0  0  0
  7 12  1  0  0  0
  8 17  1  0  0  0
  9 18  1  0  0  0
 10 11  1  0  0  0
 10 19  1  0  0  0
 12 15  1  0  0  0
 13 11  1  0  0  0
 13 15  1  0  0  0
  1  4  2  0  0  0
  2  6  2  0  0  0
  3  8  2  0  0  0
  5 10  2  0  0  0
  7  9  2  0  0  0
 11 14  2  0  0  0
 12 16  2  0  0  0
M  END
> <rmsd>
0.27688536

$$$$
ZINC92106416


 19 20  0  0  0  0  0  0  0  0999 V2000
    6.3542   -2.9682    2.3830 C   0  0  0  0  0
    0.0362    1.7098   -0.7227 C   0  0  0  0  0
    1.6032    1.8048    1.1137 C   0  0  0  0  0
    5.1452   -3.6384    2.1968 C   0  0  0  0  0
    6.5395   -1.6987    1.8356 C   0  0  0  0  0
   -0.0843    3.0990   -0.6917 C   0  0  0  0  0
    1.4828    3.1942    1.1446 C   0  0  0  0  0
    4.3066   -1.7695    0.9156 C   0  0  0  0  0
    0.8801    1.0627    0.1801 C   0  0  0  0  0
    4.1214   -3.0391    1.4630 C   0  0  0  0  0
    5.5157   -1.0993    1.1019 C   0  0  0  0  0
    0.6389    3.8413    0.2419 C   0  0  0  0  0
    3.2365   -1.1429    0.1478 C   0  0  0  0  0
    1.0011   -0.3319    0.1491 N   0  0  0  0  0
    2.0328   -0.9295    0.8161 N   0  0  0  0  0
    3.4208   -0.8139   -1.0358 O   0  0  0  0  0
    2.9477   -3.7115    1.2941 O   0  0  0  0  0
    5.7177    0.1421    0.5766 O   0  0  0  0  0
    0.5231    5.1754    0.2717 F   0  0  0  0  0
  1  4  1  0  0  0
  2  9  1  0  0  0
  3  7  1  0  0  0
  5 11  1  0  0  0
  6 12  1  0  0  0
  8 10  1  0  0  0
  8 13  1  0  0  0
  9 14  1  0  0  0
 10 17  1  0  0  0
 11 18  1  0  0  0
 12 19  1  0  0  0
 13 15  1  0  0  0
 14 15  1  0  0  0
  1  5  2  0  0  0
  2  6  2  0  0  0
  3  9  2  0  0  0
  4 10  2  0  0  0
  7 12  2  0  0  0
  8 11  2  0  0  0
 13 16  2  0  0  0
M  END
> <rmsd>
0.243748158

$$$$
ZINC92119906


 18 18  0  0  0  0  0  0  0  0999 V2000
    6.5338   -3.1555    1.9982 C   0  0  0  0  0
    5.2912   -3.7691    1.8407 C   0  0  0  0  0
    6.7153   -1.8334    1.5923 C   0  0  0  0  0
    4.4114   -1.7385    0.8712 C   0  0  0  0  0
    4.2300   -3.0606    1.2771 C   0  0  0  0  0
    5.6541   -1.1249    1.0288 C   0  0  0  0  0
    3.2921   -0.9912    0.2761 C   0  0  0  0  0
    2.7416   -0.3101    2.5798 C   0  0  0  0  0
    1.7452    1.9748    0.4621 C   0  0  0  0  0
    1.3222    0.5367    0.7449 C   0  0  0  0  0
    0.5887    2.8789    0.0843 C   0  0  0  0  0
    2.4542   -0.2636    1.1449 N   0  0  0  0  0
    3.1850   -1.0544   -0.9480 O   0  0  0  0  0
    3.0239   -3.6795    1.1334 O   0  0  0  0  0
    5.8531    0.1662    0.6399 O   0  0  0  0  0
    1.0108    4.1357   -0.1703 F   0  0  0  0  0
   -0.0218    2.4194   -1.0312 F   0  0  0  0  0
   -0.3411    2.9398    1.0599 F   0  0  0  0  0
  1  2  1  0  0  0
  3  6  1  0  0  0
  4  5  1  0  0  0
  4  7  1  0  0  0
  5 14  1  0  0  0
  6 15  1  0  0  0
  7 12  1  0  0  0
  8 12  1  0  0  0
  9 10  1  0  0  0
  9 11  1  0  0  0
 10 12  1  0  0  0
 11 16  1  0  0  0
 11 17  1  0  0  0
 11 18  1  0  0  0
  1  3  2  0  0  0
  2  5  2  0  0  0
  4  6  2  0  0  0
  7 13  2  0  0  0
M  END
> <rmsd>
0.512085438

$$$$
ZINC00238448


 18 19  0  0  0  0  0  0  0  0999 V2000
    5.0633   -3.6985    2.0608 C   0  0  0  0  0
    6.5752   -1.8508    1.6905 C   0  0  0  0  0
    1.4732    1.8831    0.9858 C   0  0  0  0  0
    4.2937   -1.7208    0.9061 C   0  0  0  0  0
    6.3276   -3.1260    2.1988 C   0  0  0  0  0
    4.0462   -2.9960    1.4144 C   0  0  0  0  0
    5.5581   -1.1482    1.0441 C   0  0  0  0  0
    1.2511    0.6090    0.5070 C   0  0  0  0  0
   -0.1633    1.6929   -0.7717 C   0  0  0  0  0
    3.2306   -0.9850    0.2311 C   0  0  0  0  0
    7.4146   -3.8772    2.8903 C   0  0  0  0  0
   -1.1908    1.9713   -1.7986 C   0  0  0  0  0
    1.9375   -0.6456    0.9886 C   0  0  0  0  0
    0.3127    0.4979   -0.5005 N   0  0  0  0  0
    3.3633   -0.6309   -0.9566 O   0  0  0  0  0
    2.8178   -3.5733    1.2903 O   0  0  0  0  0
    5.8216    0.0967    0.5557 O   0  0  0  0  0
    0.4734    2.9955    0.1464 S   0  0  0  0  0
  1  5  1  0  0  0
  2  7  1  0  0  0
  3 18  1  0  0  0
  4  6  1  0  0  0
  4 10  1  0  0  0
  6 16  1  0  0  0
  7 17  1  0  0  0
  8 14  1  0  0  0
  9 18  1  0  0  0
 11  5  1  0  0  0
 12  9  1  0  0  0
 13  8  1  0  0  0
 13 10  1  0  0  0
  1  6  2  0  0  0
  2  5  2  0  0  0
  3  8  2  0  0  0
  4  7  2  0  0  0
  9 14  2  0  0  0
 10 15  2  0  0  0
M  END
> <rmsd>
0.402904332

$$$$
ZINC92122903


 19 20  0  0  0  0  0  0  0  0999 V2000
    6.3703   -3.0430    2.2872 C   0  0  0  0  0
    5.1390   -3.6769    2.1221 C   0  0  0  0  0
    6.5731   -1.7660    1.7640 C   0  0  0  0  0
    4.3130   -1.7570    0.9101 C   0  0  0  0  0
    4.1103   -3.0340    1.4335 C   0  0  0  0  0
    5.5444   -1.1230    1.0753 C   0  0  0  0  0
    3.2177   -1.0723    0.1761 C   0  0  0  0  0
    0.7135    3.3882   -0.7860 C   0  0  0  0  0
    1.9882    2.7044   -0.3014 C   0  0  0  0  0
   -0.4740    2.4307   -0.8026 C   0  0  0  0  0
    1.7871    2.0330    1.0561 C   0  0  0  0  0
   -0.6761    1.7595    0.5548 C   0  0  0  0  0
    0.5915    1.0692    1.0799 C   0  0  0  0  0
   -0.2803   -1.1882    0.3691 C   0  0  0  0  0
    0.8910   -0.2218    0.3131 C   0  0  0  0  0
    2.0826   -0.8690    0.9095 N   0  0  0  0  0
    3.3857   -0.7634   -1.0008 O   0  0  0  0  0
    2.9146   -3.6716    1.2846 O   0  0  0  0  0
    5.7638    0.1249    0.5728 O   0  0  0  0  0
  1  2  1  0  0  0
  3  6  1  0  0  0
  4  5  1  0  0  0
  4  7  1  0  0  0
  5 18  1  0  0  0
  6 19  1  0  0  0
  7 16  1  0  0  0
  8  9  1  0  0  0
  8 10  1  0  0  0
  9 11  1  0  0  0
 10 12  1  0  0  0
 11 13  1  0  0  0
 12 13  1  0  0  0
 13 15  1  0  0  0
 14 15  1  0  0  0
 15 16  1  0  0  0
  1  3  2  0  0  0
  2  5  2  0  0  0
  4  6  2  0  0  0
  7 17  2  0  0  0
M  END
> <rmsd>
0.213546902

$$$$
ZINC92122905


 19 20  0  0  0  0  0  0  0  0999 V2000
    6.4405   -3.0154    2.2490 C   0  0  0  0  0
    5.2311   -3.6912    2.0878 C   0  0  0  0  0
    6.5919   -1.7255    1.7400 C   0  0  0  0  0
    4.3244   -1.7876    0.9083 C   0  0  0  0  0
    4.1730   -3.0774    1.4174 C   0  0  0  0  0
    5.5339   -1.1117    1.0696 C   0  0  0  0  0
    3.1979   -1.1339    0.1936 C   0  0  0  0  0
    0.7816    3.9901    0.1511 C   0  0  0  0  0
    0.1914    3.2007   -1.0133 C   0  0  0  0  0
    2.0255    3.3112    0.7160 C   0  0  0  0  0
   -0.0892    1.7505   -0.6260 C   0  0  0  0  0
    1.7479    1.8612    1.1060 C   0  0  0  0  0
    1.1623    1.0614   -0.0656 C   0  0  0  0  0
    0.3730   -1.2125   -0.8096 C   0  0  0  0  0
    0.8437   -0.3695    0.3639 C   0  0  0  0  0
    2.0636   -0.9805    0.9406 N   0  0  0  0  0
    3.3427   -0.8046   -0.9807 O   0  0  0  0  0
    2.9996   -3.7558    1.2720 O   0  0  0  0  0
    5.7031    0.1495    0.5808 O   0  0  0  0  0
  1  2  1  0  0  0
  3  6  1  0  0  0
  4  5  1  0  0  0
  4  7  1  0  0  0
  5 18  1  0  0  0
  6 19  1  0  0  0
  7 16  1  0  0  0
  8  9  1  0  0  0
  8 10  1  0  0  0
  9 11  1  0  0  0
 10 12  1  0  0  0
 11 13  1  0  0  0
 12 13  1  0  0  0
 13 15  1  0  0  0
 14 15  1  0  0  0
 15 16  1  0  0  0
  1  3  2  0  0  0
  2  5  2  0  0  0
  4  6  2  0  0  0
  7 17  2  0  0  0
M  END
> <rmsd>
0.322143883

$$$$
ZINC92123454


 19 20  0  0  0  0  0  0  0  0999 V2000
    6.3811   -3.1279    2.1281 C   0  0  0  0  0
    5.1260   -3.7236    2.0034 C   0  0  0  0  0
    6.5936   -1.8398    1.6369 C   0  0  0  0  0
    4.2961   -1.7432    0.8959 C   0  0  0  0  0
    4.0836   -3.0313    1.3872 C   0  0  0  0  0
    5.5512   -1.1474    1.0208 C   0  0  0  0  0
    3.1999   -1.0152    0.2472 C   0  0  0  0  0
    1.5810    0.7527    2.8749 C   0  0  0  0  0
    0.1552    0.9426    2.3536 C   0  0  0  0  0
    2.1493   -0.5941    2.4430 C   0  0  0  0  0
    0.6850   -0.6430    0.4518 C   0  0  0  0  0
    0.0365    0.7091    0.8283 C   0  0  0  0  0
    0.7132    1.8541    0.0498 C   0  0  0  0  0
   -1.6250    0.4556   -1.0222 C   0  0  0  0  0
   -1.4524    0.6784    0.4402 C   0  0  0  0  0
    2.0469   -0.7626    0.9947 N   0  0  0  0  0
    3.3875   -0.6810   -0.9214 O   0  0  0  0  0
    2.8648   -3.6321    1.2768 O   0  0  0  0  0
    5.7805    0.1105    0.5486 O   0  0  0  0  0
  1  2  1  0  0  0
  3  6  1  0  0  0
  4  5  1  0  0  0
  4  7  1  0  0  0
  5 18  1  0  0  0
  6 19  1  0  0  0
  7 16  1  0  0  0
  8  9  1  0  0  0
  8 10  1  0  0  0
  9 12  1  0  0  0
 10 16  1  0  0  0
 11 12  1  0  0  0
 11 16  1  0  0  0
 12 13  1  0  0  0
 12 15  1  0  0  0
 14 15  1  0  0  0
  1  3  2  0  0  0
  2  5  2  0  0  0
  4  6  2  0  0  0
  7 17  2  0  0  0
M  END
> <rmsd>
0.299542934

$$$$
ZINC92124599


 19 20  0  0  0  0  0  0  0  0999 V2000
    6.3336   -2.8393    2.5163 C   0  0  0  0  0
    5.1695   -3.5746    2.2928 C   0  0  0  0  0
    6.4821   -1.5767    1.9422 C   0  0  0  0  0
    4.3023   -1.7847    0.9210 C   0  0  0  0  0
    4.1540   -3.0474    1.4951 C   0  0  0  0  0
    5.4664   -1.0495    1.1445 C   0  0  0  0  0
    3.2211   -1.2234    0.0709 C   0  0  0  0  0
   -1.0096   -0.6238    1.7948 C   0  0  0  0  0
   -1.5576    0.1710    0.6442 C   0  0  0  0  0
   -0.0742    0.1889    0.9303 C   0  0  0  0  0
    0.0682    2.8771   -0.5459 C   0  0  0  0  0
    1.7437    3.6222    1.1573 C   0  0  0  0  0
    0.5232    1.4574    1.5221 C   0  0  0  0  0
    0.8346   -0.5497   -0.0132 C   0  0  0  0  0
    1.1137    2.4098    0.4676 C   0  0  0  0  0
    1.9802   -1.0563    0.6811 N   0  0  0  0  0
    3.4584   -0.9586   -1.1047 O   0  0  0  0  0
    3.0244   -3.7827    1.2908 O   0  0  0  0  0
    5.6318    0.1864    0.5940 O   0  0  0  0  0
  1  2  1  0  0  0
  3  6  1  0  0  0
  4  5  1  0  0  0
  4  7  1  0  0  0
  5 18  1  0  0  0
  6 19  1  0  0  0
  7 16  1  0  0  0
  8  9  1  0  0  0
  8 10  1  0  0  0
  9 10  1  0  0  0
 10 13  1  0  0  0
 10 14  1  0  0  0
 11 15  1  0  0  0
 12 15  1  0  0  0
 13 15  1  0  0  0
 14 16  1  0  0  0
  1  3  2  0  0  0
  2  5  2  0  0  0
  4  6  2  0  0  0
  7 17  2  0  0  0
M  END
> <rmsd>
0.454703391

$$$$
ZINC92124599


 19 20  0  0  0  0  0  0  0  0999 V2000
    6.3905   -3.0914    2.1840 C   0  0  0  0  0
    5.1468   -3.7068    2.0427 C   0  0  0  0  0
    6.5924   -1.8043    1.6855 C   0  0  0  0  0
    4.3069   -1.7482    0.9046 C   0  0  0  0  0
    4.1050   -3.0352    1.4030 C   0  0  0  0  0
    5.5506   -1.1327    1.0458 C   0  0  0  0  0
    3.1975   -1.0330    0.2226 C   0  0  0  0  0
    0.1118    2.2211   -0.1901 C   0  0  0  0  0
    1.5966    2.1710   -0.4109 C   0  0  0  0  0
    0.9700    1.3279    0.6750 C   0  0  0  0  0
   -1.2425    1.4625    2.7995 C   0  0  0  0  0
    0.3124    2.8317    4.2034 C   0  0  0  0  0
    1.1991    1.7418    2.1216 C   0  0  0  0  0
    0.8875   -0.1576    0.4547 C   0  0  0  0  0
   -0.0302    2.3946    2.7772 C   0  0  0  0  0
    2.0490   -0.8114    0.9788 N   0  0  0  0  0
    3.3320   -0.6971   -0.9511 O   0  0  0  0  0
    2.8974   -3.6551    1.2768 O   0  0  0  0  0
    5.7694    0.1246    0.5671 O   0  0  0  0  0
  1  2  1  0  0  0
  3  6  1  0  0  0
  4  5  1  0  0  0
  4  7  1  0  0  0
  5 18  1  0  0  0
  6 19  1  0  0  0
  7 16  1  0  0  0
  8  9  1  0  0  0
  8 10  1  0  0  0
  9 10  1  0  0  0
 10 13  1  0  0  0
 10 14  1  0  0  0
 11 15  1  0  0  0
 12 15  1  0  0  0
 13 15  1  0  0  0
 14 16  1  0  0  0
  1  3  2  0  0  0
  2  5  2  0  0  0
  4  6  2  0  0  0
  7 17  2  0  0  0
M  END
> <rmsd>
0.318271875

$$$$
ZINC92123450


 19 20  0  0  0  0  0  0  0  0999 V2000
    6.4726   -3.2473    1.8822 C   0  0  0  0  0
    5.2029   -3.8207    1.8131 C   0  0  0  0  0
    6.6698   -1.9354    1.4511 C   0  0  0  0  0
    4.3277   -1.7704    0.8818 C   0  0  0  0  0
    4.1305   -3.0822    1.3129 C   0  0  0  0  0
    5.5973   -1.1969    0.9509 C   0  0  0  0  0
    3.1999   -0.9939    0.3550 C   0  0  0  0  0
    1.7967    0.6373    3.1871 C   0  0  0  0  0
    0.3408    0.8730    2.7799 C   0  0  0  0  0
    2.3126   -0.6886    2.6402 C   0  0  0  0  0
    0.7115   -0.6059    0.7583 C   0  0  0  0  0
    0.1117    0.7293    1.2561 C   0  0  0  0  0
   -1.4010    0.7378    0.9735 C   0  0  0  0  0
    0.5369    1.7844   -0.9699 C   0  0  0  0  0
    0.7496    1.9098    0.4980 C   0  0  0  0  0
    2.1062   -0.7720    1.1955 N   0  0  0  0  0
    3.3101   -0.5948   -0.8032 O   0  0  0  0  0
    2.8980   -3.6620    1.2552 O   0  0  0  0  0
    5.8121    0.0835    0.5359 O   0  0  0  0  0
  1  2  1  0  0  0
  3  6  1  0  0  0
  4  5  1  0  0  0
  4  7  1  0  0  0
  5 18  1  0  0  0
  6 19  1  0  0  0
  7 16  1  0  0  0
  8  9  1  0  0  0
  8 10  1  0  0  0
  9 12  1  0  0  0
 10 16  1  0  0  0
 11 12  1  0  0  0
 11 16  1  0  0  0
 12 13  1  0  0  0
 12 15  1  0  0  0
 14 15  1  0  0  0
  1  3  2  0  0  0
  2  5  2  0  0  0
  4  6  2  0  0  0
  7 17  2  0  0  0
M  END
> <rmsd>
0.367531955

$$$$
ZINC92123166


 18 19  0  0  0  0  0  0  0  0999 V2000
    6.3367   -2.9507    2.3968 C   0  0  0  0  0
    5.1292   -3.6219    2.2045 C   0  0  0  0  0
    6.5245   -1.6819    1.8485 C   0  0  0  0  0
    0.6887    3.2016    1.0612 C   0  0  0  0  0
    4.2971   -1.7555    0.9156 C   0  0  0  0  0
    4.1094   -3.0243    1.4639 C   0  0  0  0  0
    5.5046   -1.0843    1.1079 C   0  0  0  0  0
    1.0537    3.5251   -0.2287 C   0  0  0  0  0
    0.8683    1.1717    0.2506 C   0  0  0  0  0
    3.2311   -1.1307    0.1405 C   0  0  0  0  0
    1.2550    4.8479   -0.8508 C   0  0  0  0  0
    0.8603   -0.3269    0.1597 C   0  0  0  0  0
    0.5815    1.8526    1.3379 N   0  0  0  0  0
    2.0168   -0.9136    0.7979 N   0  0  0  0  0
    3.4132   -0.8347   -1.0515 O   0  0  0  0  0
    2.9371   -3.6977    1.2891 O   0  0  0  0  0
    5.7089    0.1564    0.5818 O   0  0  0  0  0
    1.2762    2.0897   -1.1407 S   0  0  0  0  0
  1  2  1  0  0  0
  3  7  1  0  0  0
  4 13  1  0  0  0
  5  6  1  0  0  0
  5 10  1  0  0  0
  6 16  1  0  0  0
  7 17  1  0  0  0
  8 18  1  0  0  0
  9 18  1  0  0  0
 10 14  1  0  0  0
 11  8  1  0  0  0
 12  9  1  0  0  0
 12 14  1  0  0  0
  1  3  2  0  0  0
  2  6  2  0  0  0
  4  8  2  0  0  0
  5  7  2  0  0  0
  9 13  2  0  0  0
 10 15  2  0  0  0
M  END
> <rmsd>
0.2697846

$$$$
ZINC92121138


 18 19  0  0  0  0  0  0  0  0999 V2000
    6.3388   -2.9462    2.4022 C   0  0  0  0  0
    5.1337   -3.6212    2.2083 C   0  0  0  0  0
    6.5240   -1.6774    1.8529 C   0  0  0  0  0
    1.0241    3.5218   -0.1921 C   0  0  0  0  0
    4.2986   -1.7586    0.9157 C   0  0  0  0  0
    4.1136   -3.0274    1.4651 C   0  0  0  0  0
    5.5038   -1.0837    1.1096 C   0  0  0  0  0
    0.5797    1.9847    1.3078 C   0  0  0  0  0
    0.8624    1.1577    0.2410 C   0  0  0  0  0
    3.2322   -1.1379    0.1379 C   0  0  0  0  0
    0.1915    1.5502    2.6655 C   0  0  0  0  0
    0.8590   -0.3410    0.1518 C   0  0  0  0  0
    0.6722    3.3406    1.0615 N   0  0  0  0  0
    2.0160   -0.9237    0.7928 N   0  0  0  0  0
    3.4157   -0.8426   -1.0541 O   0  0  0  0  0
    2.9436   -3.7044    1.2888 O   0  0  0  0  0
    5.7054    0.1570    0.5826 O   0  0  0  0  0
    1.2598    2.1054   -1.1320 S   0  0  0  0  0
  1  2  1  0  0  0
  3  7  1  0  0  0
  4 18  1  0  0  0
  5  6  1  0  0  0
  5 10  1  0  0  0
  6 16  1  0  0  0
  7 17  1  0  0  0
  8 13  1  0  0  0
  9 18  1  0  0  0
 10 14  1  0  0  0
 11  8  1  0  0  0
 12  9  1  0  0  0
 12 14  1  0  0  0
  1  3  2  0  0  0
  2  6  2  0  0  0
  4 13  2  0  0  0
  5  7  2  0  0  0
  8  9  2  0  0  0
 10 15  2  0  0  0
M  END
> <rmsd>
0.272710145

$$$$
ZINC92126253


 19 20  0  0  0  0  0  0  0  0999 V2000
    6.4456   -3.0522    2.2530 C   0  0  0  0  0
    5.2273   -3.7120    2.0928 C   0  0  0  0  0
    6.6144   -1.7654    1.7417 C   0  0  0  0  0
    4.3463   -1.7985    0.9098 C   0  0  0  0  0
    4.1776   -3.0852    1.4212 C   0  0  0  0  0
    5.5648   -1.1385    1.0701 C   0  0  0  0  0
    3.2288   -1.1309    0.1940 C   0  0  0  0  0
    0.3578    3.2687   -0.3056 C   0  0  0  0  0
   -0.0270    1.8375   -0.5849 C   0  0  0  0  0
    1.0679    3.1477    1.0260 C   0  0  0  0  0
    1.1877    1.0902   -0.0623 C   0  0  0  0  0
    0.0428   -2.6058   -0.4378 C   0  0  0  0  0
    0.3492   -1.1622   -0.8156 C   0  0  0  0  0
    0.8853   -0.3336    0.3630 C   0  0  0  0  0
    2.0689   -0.9462    0.9275 N   0  0  0  0  0
    3.3780   -0.8057   -0.9809 O   0  0  0  0  0
    1.6681    1.8442    1.0634 O   0  0  0  0  0
    2.9952   -3.7481    1.2769 O   0  0  0  0  0
    5.7509    0.1194    0.5791 O   0  0  0  0  0
  1  2  1  0  0  0
  3  6  1  0  0  0
  4  5  1  0  0  0
  4  7  1  0  0  0
  5 18  1  0  0  0
  6 19  1  0  0  0
  7 15  1  0  0  0
  8  9  1  0  0  0
  8 10  1  0  0  0
  9 11  1  0  0  0
 10 17  1  0  0  0
 11 14  1  0  0  0
 11 17  1  0  0  0
 12 13  1  0  0  0
 13 14  1  0  0  0
 14 15  1  0  0  0
  1  3  2  0  0  0
  2  5  2  0  0  0
  4  6  2  0  0  0
  7 16  2  0  0  0
M  END
> <rmsd>
0.314049423

$$$$
ZINC92125454


 19 20  0  0  0  0  0  0  0  0999 V2000
    6.3903   -3.0922    2.1834 C   0  0  0  0  0
    5.1466   -3.7076    2.0422 C   0  0  0  0  0
    6.5923   -1.8051    1.6849 C   0  0  0  0  0
    4.3067   -1.7489    0.9041 C   0  0  0  0  0
    4.1048   -3.0359    1.4025 C   0  0  0  0  0
    5.5505   -1.1335    1.0452 C   0  0  0  0  0
    3.1974   -1.0337    0.2221 C   0  0  0  0  0
    0.1118    2.2204   -0.1906 C   0  0  0  0  0
    1.5966    2.1703   -0.4115 C   0  0  0  0  0
    0.9700    1.3272    0.6744 C   0  0  0  0  0
   -2.2664    1.6306    3.3774 C   0  0  0  0  0
    1.1965    1.7363    2.1038 C   0  0  0  0  0
    0.8875   -0.1582    0.4542 C   0  0  0  0  0
    0.0365    1.3374    3.0122 C   0  0  0  0  0
    2.0489   -0.8121    0.9784 N   0  0  0  0  0
    3.3319   -0.6980   -0.9516 O   0  0  0  0  0
    2.8972   -3.6558    1.2764 O   0  0  0  0  0
    5.7693    0.1238    0.5664 O   0  0  0  0  0
   -1.1567    1.9561    2.5512 O   0  0  0  0  0
  1  2  1  0  0  0
  3  6  1  0  0  0
  4  5  1  0  0  0
  4  7  1  0  0  0
  5 17  1  0  0  0
  6 18  1  0  0  0
  7 15  1  0  0  0
  8  9  1  0  0  0
  8 10  1  0  0  0
  9 10  1  0  0  0
 10 12  1  0  0  0
 10 13  1  0  0  0
 11 19  1  0  0  0
 12 14  1  0  0  0
 13 15  1  0  0  0
 14 19  1  0  0  0
  1  3  2  0  0  0
  2  5  2  0  0  0
  4  6  2  0  0  0
  7 16  2  0  0  0
M  END
> <rmsd>
0.318561047

$$$$
ZINC92120951


 19 20  0  0  0  0  0  0  0  0999 V2000
    6.3770   -3.1623    2.2025 C   0  0  0  0  0
    5.1142   -3.7374    2.0615 C   0  0  0  0  0
    6.6229   -1.8861    1.6958 C   0  0  0  0  0
    4.3428   -1.7603    0.9068 C   0  0  0  0  0
    4.0970   -3.0364    1.4136 C   0  0  0  0  0
    5.6058   -1.1852    1.0478 C   0  0  0  0  0
    3.2598   -1.0138    0.2162 C   0  0  0  0  0
    2.4278    3.3121    3.7069 C   0  0  0  0  0
    3.2953    3.1552    2.4904 C   0  0  0  0  0
    1.8002    3.0927    2.3601 C   0  0  0  0  0
   -0.0930    2.2287    0.0535 C   0  0  0  0  0
   -0.1482    1.6036    2.7921 C   0  0  0  0  0
    0.9791   -0.0614    0.4343 C   0  0  0  0  0
    1.0809    1.4502    0.6319 C   0  0  0  0  0
    2.1267   -0.7552    0.9716 N   0  0  0  0  0
    1.1762    1.7484    2.0884 N   0  0  0  0  0
    3.4090   -0.6909   -0.9594 O   0  0  0  0  0
    2.8700   -3.6169    1.2877 O   0  0  0  0  0
    5.8674    0.0608    0.5610 O   0  0  0  0  0
  1  2  1  0  0  0
  3  6  1  0  0  0
  4  5  1  0  0  0
  4  7  1  0  0  0
  5 18  1  0  0  0
  6 19  1  0  0  0
  7 15  1  0  0  0
  8  9  1  0  0  0
  8 10  1  0  0  0
  9 10  1  0  0  0
 10 16  1  0  0  0
 11 14  1  0  0  0
 12 16  1  0  0  0
 13 14  1  0  0  0
 13 15  1  0  0  0
 14 16  1  0  0  0
  1  3  2  0  0  0
  2  5  2  0  0  0
  4  6  2  0  0  0
  7 17  2  0  0  0
M  CHG  1  16   1
M  END
> <rmsd>
0.365891963

$$$$
ZINC92123939


 19 19  0  0  0  0  0  0  0  0999 V2000
    6.4493   -3.0735    2.1574 C   0  0  0  0  0
    5.2178   -3.6994    1.9643 C   0  0  0  0  0
    6.6450   -1.7665    1.7112 C   0  0  0  0  0
    4.3776   -1.7111    0.8787 C   0  0  0  0  0
    4.1820   -3.0182    1.3249 C   0  0  0  0  0
    5.6092   -1.0853    1.0718 C   0  0  0  0  0
    3.2852   -0.9926    0.2037 C   0  0  0  0  0
    2.3290    2.0196   -1.2525 C   0  0  0  0  0
    0.4973    2.9526    0.1890 C   0  0  0  0  0
    4.5446    1.8207   -2.3768 C   0  0  0  0  0
    2.5872   -0.2069    2.4329 C   0  0  0  0  0
    1.2835    0.5419    0.4738 C   0  0  0  0  0
    1.6841    1.9881    0.1354 C   0  0  0  0  0
    3.7012    1.8206   -1.2032 N   0  0  0  0  0
    2.4035   -0.2392    0.9878 N   0  0  0  0  0
    3.2375   -1.1010   -1.0211 O   0  0  0  0  0
    1.6833    2.2152   -2.2800 O   0  0  0  0  0
    2.9863   -3.6485    1.1476 O   0  0  0  0  0
    5.8217    0.1915    0.6446 O   0  0  0  0  0
  1  2  1  0  0  0
  3  6  1  0  0  0
  4  5  1  0  0  0
  4  7  1  0  0  0
  5 18  1  0  0  0
  6 19  1  0  0  0
  7 15  1  0  0  0
  8 14  1  0  0  0
  9 13  1  0  0  0
 10 14  1  0  0  0
 11 15  1  0  0  0
 12 13  1  0  0  0
 12 15  1  0  0  0
 13  8  1  0  0  0
  1  3  2  0  0  0
  2  5  2  0  0  0
  4  6  2  0  0  0
  7 16  2  0  0  0
  8 17  2  0  0  0
M  END
> <rmsd>
0.445315152

$$$$
ZINC01582596


 20 22  0  0  0  0  0  0  0  0999 V2000
    0.1748    3.5160    0.2627 C   0  0  0  0  0
    0.1494    2.5461    1.2648 C   0  0  0  0  0
    0.5358    3.1653   -1.0383 C   0  0  0  0  0
    0.4850    1.2256    0.9661 C   0  0  0  0  0
    0.8714    1.8448   -1.3370 C   0  0  0  0  0
    6.5489   -1.6496    2.0580 C   0  0  0  0  0
    6.4628   -2.8403    2.7765 C   0  0  0  0  0
    2.3683   -3.0441    0.6963 C   0  0  0  0  0
    4.3491   -2.0419    1.1224 C   0  0  0  0  0
    3.1293   -1.9377    0.3969 C   0  0  0  0  0
    0.8461    0.8749   -0.3348 C   0  0  0  0  0
    4.2906   -3.2299    1.8540 C   0  0  0  0  0
    5.5009   -1.2370    1.2270 C   0  0  0  0  0
    5.3303   -3.6550    2.6886 C   0  0  0  0  0
    2.7107   -0.8961   -0.4979 C   0  0  0  0  0
    1.2094   -0.5536   -0.6579 C   0  0  0  0  0
    3.0769   -3.8175    1.5762 N   0  0  0  0  0
    3.5443   -0.2388   -1.1730 O   0  0  0  0  0
    5.6214   -0.0604    0.5360 O   0  0  0  0  0
    5.2617   -4.8197    3.3997 O   0  0  0  0  0
  1  2  1  0  0  0
  3  5  1  0  0  0
  4 11  1  0  0  0
  6 13  1  0  0  0
  7 14  1  0  0  0
  8 17  1  0  0  0
  9 10  1  0  0  0
  9 12  1  0  0  0
 10 15  1  0  0  0
 12 17  1  0  0  0
 13 19  1  0  0  0
 14 20  1  0  0  0
 16 11  1  0  0  0
 16 15  1  0  0  0
  1  3  2  0  0  0
  2  4  2  0  0  0
  5 11  2  0  0  0
  6  7  2  0  0  0
  8 10  2  0  0  0
  9 13  2  0  0  0
 12 14  2  0  0  0
 15 18  2  0  0  0
M  END
> <rmsd>
0.30952999

$$$$
ZINC92126333


 19 19  0  0  0  0  0  0  0  0999 V2000
    6.4959   -3.1293    1.9573 C   0  0  0  0  0
    5.2504   -3.7392    1.8088 C   0  0  0  0  0
    6.6751   -1.8038    1.5611 C   0  0  0  0  0
    4.3632   -1.6985    0.8679 C   0  0  0  0  0
    4.1841   -3.0239    1.2640 C   0  0  0  0  0
    5.6088   -1.0885    1.0164 C   0  0  0  0  0
    3.2385   -0.9439    0.2926 C   0  0  0  0  0
   -0.1750    5.0009   -1.2279 C   0  0  0  0  0
    0.9891    4.1901   -0.6812 C   0  0  0  0  0
    0.5573    2.7727   -0.3063 C   0  0  0  0  0
    1.7225    1.9713    0.2741 C   0  0  0  0  0
    1.3017    0.5462    0.6126 C   0  0  0  0  0
    2.5599   -0.1731    2.6122 C   0  0  0  0  0
    1.7611   -1.2973    3.2458 C   0  0  0  0  0
    2.3957   -0.2138    1.1524 N   0  0  0  0  0
    3.1190   -0.9931   -0.9310 O   0  0  0  0  0
    2.9752   -3.6393    1.1289 O   0  0  0  0  0
    5.8056    0.2057    0.6367 O   0  0  0  0  0
    1.9513   -1.2757    4.6548 O   0  0  0  0  0
  1  2  1  0  0  0
  3  6  1  0  0  0
  4  5  1  0  0  0
  4  7  1  0  0  0
  5 17  1  0  0  0
  6 18  1  0  0  0
  7 15  1  0  0  0
  8  9  1  0  0  0
  9 10  1  0  0  0
 10 11  1  0  0  0
 11 12  1  0  0  0
 12 15  1  0  0  0
 13 14  1  0  0  0
 13 15  1  0  0  0
 14 19  1  0  0  0
  1  3  2  0  0  0
  2  5  2  0  0  0
  4  6  2  0  0  0
  7 16  2  0  0  0
M  END
> <rmsd>
0.435067624

$$$$
ZINC92126333


 19 19  0  0  0  0  0  0  0  0999 V2000
    6.4086   -3.1262    2.0638 C   0  0  0  0  0
    5.1513   -3.7059    1.8952 C   0  0  0  0  0
    6.6362   -1.8177    1.6374 C   0  0  0  0  0
    4.3490   -1.6688    0.8737 C   0  0  0  0  0
    4.1214   -2.9772    1.3001 C   0  0  0  0  0
    5.6064   -1.0891    1.0424 C   0  0  0  0  0
    3.2628   -0.9001    0.2454 C   0  0  0  0  0
   -1.6021    3.8304   -0.2086 C   0  0  0  0  0
   -0.4671    3.0473    0.4321 C   0  0  0  0  0
    0.7052    2.8700   -0.5325 C   0  0  0  0  0
    1.8304    2.0536    0.1034 C   0  0  0  0  0
    1.3602    0.6506    0.4678 C   0  0  0  0  0
    2.5398   -0.0468    2.5222 C   0  0  0  0  0
    1.6920   -1.1308    3.1622 C   0  0  0  0  0
    2.4166   -0.1237    1.0599 N   0  0  0  0  0
    3.1772   -0.9801   -0.9795 O   0  0  0  0  0
    2.9002   -3.5630    1.1461 O   0  0  0  0  0
    5.8502    0.1883    0.6338 O   0  0  0  0  0
    0.3270   -0.9261    2.8206 O   0  0  0  0  0
  1  2  1  0  0  0
  3  6  1  0  0  0
  4  5  1  0  0  0
  4  7  1  0  0  0
  5 17  1  0  0  0
  6 18  1  0  0  0
  7 15  1  0  0  0
  8  9  1  0  0  0
  9 10  1  0  0  0
 10 11  1  0  0  0
 11 12  1  0  0  0
 12 15  1  0  0  0
 13 14  1  0  0  0
 13 15  1  0  0  0
 14 19  1  0  0  0
  1  3  2  0  0  0
  2  5  2  0  0  0
  4  6  2  0  0  0
  7 16  2  0  0  0
M  END
> <rmsd>
0.34662208

$$$$
ZINC92123085


 19 19  0  0  0  0  0  0  0  0999 V2000
    6.2837   -2.8073    2.5370 C   0  0  0  0  0
    5.1184   -3.5391    2.3093 C   0  0  0  0  0
    6.4416   -1.5487    1.9568 C   0  0  0  0  0
    4.2687   -1.7538    0.9208 C   0  0  0  0  0
    4.1108   -3.0124    1.5011 C   0  0  0  0  0
    5.4340   -1.0220    1.1486 C   0  0  0  0  0
    3.1959   -1.1930    0.0594 C   0  0  0  0  0
    0.4323   -1.4771   -1.1674 C   0  0  0  0  0
    0.8607    3.3887   -0.3789 C   0  0  0  0  0
    2.3086    2.1376    1.2411 C   0  0  0  0  0
   -1.2954    1.8766    0.5129 C   0  0  0  0  0
    1.0691    0.8967   -0.6232 C   0  0  0  0  0
    0.8129   -0.5105   -0.0464 C   0  0  0  0  0
    1.0431    2.0707    0.3836 C   0  0  0  0  0
    1.9606   -1.0216    0.6653 N   0  0  0  0  0
    3.4431   -0.9361   -1.1159 O   0  0  0  0  0
    2.9797   -3.7442    1.2927 O   0  0  0  0  0
    5.6087    0.2100    0.5922 O   0  0  0  0  0
   -0.0831    1.9161    1.2485 O   0  0  0  0  0
  1  2  1  0  0  0
  3  6  1  0  0  0
  4  5  1  0  0  0
  4  7  1  0  0  0
  5 17  1  0  0  0
  6 18  1  0  0  0
  7 15  1  0  0  0
  8 13  1  0  0  0
  9 14  1  0  0  0
 10 14  1  0  0  0
 11 19  1  0  0  0
 12 13  1  0  0  0
 12 14  1  0  0  0
 13 15  1  0  0  0
 14 19  1  0  0  0
  1  3  2  0  0  0
  2  5  2  0  0  0
  4  6  2  0  0  0
  7 16  2  0  0  0
M  END
> <rmsd>
0.486578137

$$$$
ZINC92123679


 19 19  0  0  0  0  0  0  0  0999 V2000
    6.5443   -3.3352    1.8021 C   0  0  0  0  0
    5.2672   -3.8935    1.7492 C   0  0  0  0  0
    6.7464   -2.0164    1.3947 C   0  0  0  0  0
    4.3942   -1.8145    0.8815 C   0  0  0  0  0
    4.1921   -3.1332    1.2889 C   0  0  0  0  0
    5.6713   -1.2561    0.9344 C   0  0  0  0  0
    3.2495   -1.0048    0.3907 C   0  0  0  0  0
   -0.0217    1.4272   -1.5801 C   0  0  0  0  0
   -1.0898    2.1631    0.5646 C   0  0  0  0  0
    0.6813    3.5637   -0.4994 C   0  0  0  0  0
    2.9176    1.8010    2.2671 C   0  0  0  0  0
    1.0180   -0.0766    0.9524 C   0  0  0  0  0
    1.3496    1.3700    0.5706 C   0  0  0  0  0
    0.2319    2.1118   -0.2243 C   0  0  0  0  0
    2.2079   -0.8176    1.2886 N   0  0  0  0  0
    3.2703   -0.5709   -0.7582 O   0  0  0  0  0
    2.9524   -3.6984    1.2466 O   0  0  0  0  0
    5.8910    0.0306    0.5421 O   0  0  0  0  0
    1.6198    2.0920    1.7776 O   0  0  0  0  0
  1  2  1  0  0  0
  3  6  1  0  0  0
  4  5  1  0  0  0
  4  7  1  0  0  0
  5 17  1  0  0  0
  6 18  1  0  0  0
  7 15  1  0  0  0
  8 14  1  0  0  0
  9 14  1  0  0  0
 10 14  1  0  0  0
 11 19  1  0  0  0
 12 13  1  0  0  0
 12 15  1  0  0  0
 13 14  1  0  0  0
 13 19  1  0  0  0
  1  3  2  0  0  0
  2  5  2  0  0  0
  4  6  2  0  0  0
  7 16  2  0  0  0
M  END
> <rmsd>
0.47750777

$$$$
ZINC92122664


 19 19  0  0  0  0  0  0  0  0999 V2000
    6.3782   -3.1791    2.1836 C   0  0  0  0  0
    5.1109   -3.7458    2.0475 C   0  0  0  0  0
    6.6288   -1.9023    1.6810 C   0  0  0  0  0
    4.3451   -1.7591    0.9058 C   0  0  0  0  0
    4.0945   -3.0358    1.4085 C   0  0  0  0  0
    5.6124   -1.1923    1.0420 C   0  0  0  0  0
    3.2627   -1.0030    0.2246 C   0  0  0  0  0
    0.2712    1.7402    4.5151 C   0  0  0  0  0
    1.5463    3.3984    2.3386 C   0  0  0  0  0
   -0.1459    2.1933    0.0366 C   0  0  0  0  0
    0.0842    1.4407    3.0325 C   0  0  0  0  0
    0.9893   -0.0377    0.4601 C   0  0  0  0  0
    1.2740    1.8993    2.1516 C   0  0  0  0  0
    1.0750    1.4889    0.6515 C   0  0  0  0  0
    2.1331   -0.7392    0.9865 N   0  0  0  0  0
    3.4071   -0.6760   -0.9504 O   0  0  0  0  0
    2.8632   -3.6084    1.2873 O   0  0  0  0  0
    5.8788    0.0541    0.5590 O   0  0  0  0  0
    2.2249    1.9413   -0.0823 O   0  0  0  0  0
  1  2  1  0  0  0
  3  6  1  0  0  0
  4  5  1  0  0  0
  4  7  1  0  0  0
  5 17  1  0  0  0
  6 18  1  0  0  0
  7 15  1  0  0  0
  8 11  1  0  0  0
  9 13  1  0  0  0
 10 14  1  0  0  0
 11 13  1  0  0  0
 12 14  1  0  0  0
 12 15  1  0  0  0
 13 14  1  0  0  0
 14 19  1  0  0  0
  1  3  2  0  0  0
  2  5  2  0  0  0
  4  6  2  0  0  0
  7 16  2  0  0  0
M  END
> <rmsd>
0.389818639

$$$$
ZINC92122664


 19 19  0  0  0  0  0  0  0  0999 V2000
    6.2015   -2.8081    2.5724 C   0  0  0  0  0
    5.0160   -3.5052    2.3395 C   0  0  0  0  0
    6.4059   -1.5622    1.9794 C   0  0  0  0  0
    4.2393   -1.7105    0.9207 C   0  0  0  0  0
    4.0349   -2.9564    1.5137 C   0  0  0  0  0
    5.4249   -1.0134    1.1535 C   0  0  0  0  0
    3.1948   -1.1262    0.0406 C   0  0  0  0  0
   -3.4142    0.9484   -0.8348 C   0  0  0  0  0
   -0.6909    1.9215   -1.7009 C   0  0  0  0  0
    1.4208    2.0237    0.5114 C   0  0  0  0  0
   -2.1200    0.4491   -0.2035 C   0  0  0  0  0
    0.8361   -0.3696   -0.1008 C   0  0  0  0  0
   -0.9652    1.4813   -0.2560 C   0  0  0  0  0
    0.3137    0.9567    0.4843 C   0  0  0  0  0
    1.9569   -0.9076    0.6287 N   0  0  0  0  0
    3.4631   -0.8913   -1.1348 O   0  0  0  0  0
    2.8836   -3.6545    1.3006 O   0  0  0  0  0
    5.6448    0.2058    0.5850 O   0  0  0  0  0
   -0.0459    0.7009    1.8519 O   0  0  0  0  0
  1  2  1  0  0  0
  3  6  1  0  0  0
  4  5  1  0  0  0
  4  7  1  0  0  0
  5 17  1  0  0  0
  6 18  1  0  0  0
  7 15  1  0  0  0
  8 11  1  0  0  0
  9 13  1  0  0  0
 10 14  1  0  0  0
 11 13  1  0  0  0
 12 14  1  0  0  0
 12 15  1  0  0  0
 13 14  1  0  0  0
 14 19  1  0  0  0
  1  3  2  0  0  0
  2  5  2  0  0  0
  4  6  2  0  0  0
  7 16  2  0  0  0
M  END
> <rmsd>
0.493519306

$$$$
ZINC92122662


 19 19  0  0  0  0  0  0  0  0999 V2000
    6.3778   -3.1791    2.1842 C   0  0  0  0  0
    5.1106   -3.7459    2.0480 C   0  0  0  0  0
    6.6287   -1.9025    1.6814 C   0  0  0  0  0
    4.3450   -1.7592    0.9059 C   0  0  0  0  0
    4.0941   -3.0359    1.4088 C   0  0  0  0  0
    5.6123   -1.1925    1.0422 C   0  0  0  0  0
    3.2628   -1.0031    0.2245 C   0  0  0  0  0
    1.8761    3.8267    3.7447 C   0  0  0  0  0
    0.0939    1.4963    3.0464 C   0  0  0  0  0
   -0.1456    2.1934    0.0357 C   0  0  0  0  0
    1.5913    3.4084    2.3071 C   0  0  0  0  0
    0.9894   -0.0376    0.4595 C   0  0  0  0  0
    1.2740    1.8994    2.1510 C   0  0  0  0  0
    1.0752    1.4890    0.6508 C   0  0  0  0  0
    2.1331   -0.7392    0.9863 N   0  0  0  0  0
    3.4073   -0.6763   -0.9505 O   0  0  0  0  0
    2.8630   -3.6084    1.2875 O   0  0  0  0  0
    5.8789    0.0539    0.5590 O   0  0  0  0  0
    2.2252    1.9412   -0.0829 O   0  0  0  0  0
  1  2  1  0  0  0
  3  6  1  0  0  0
  4  5  1  0  0  0
  4  7  1  0  0  0
  5 17  1  0  0  0
  6 18  1  0  0  0
  7 15  1  0  0  0
  8 11  1  0  0  0
  9 13  1  0  0  0
 10 14  1  0  0  0
 11 13  1  0  0  0
 12 14  1  0  0  0
 12 15  1  0  0  0
 13 14  1  0  0  0
 14 19  1  0  0  0
  1  3  2  0  0  0
  2  5  2  0  0  0
  4  6  2  0  0  0
  7 16  2  0  0  0
M  END
> <rmsd>
0.389701843

$$$$
ZINC92123338


 18 19  0  0  0  0  0  0  0  0999 V2000
    6.4977   -3.1468    2.0155 C   0  0  0  0  0
    5.2509   -3.7510    1.8544 C   0  0  0  0  0
    6.6922   -1.8281    1.6043 C   0  0  0  0  0
    4.3929   -1.7178    0.8708 C   0  0  0  0  0
    4.1984   -3.0364    1.2820 C   0  0  0  0  0
    5.6397   -1.1137    1.0319 C   0  0  0  0  0
    3.2859   -0.9661    0.2678 C   0  0  0  0  0
    1.3433    0.5377    0.5450 C   0  0  0  0  0
    2.6240   -0.0883    2.5667 C   0  0  0  0  0
    1.5929    2.0437    0.6655 C   0  0  0  0  0
    3.0395    1.3378    2.9376 C   0  0  0  0  0
    0.4578    2.8393    0.0303 C   0  0  0  0  0
    3.2671    1.4686    4.4395 C   0  0  0  0  0
    2.4511   -0.2305    1.1147 N   0  0  0  0  0
    3.1844   -1.0395   -0.9558 O   0  0  0  0  0
    2.9880   -3.6460    1.1349 O   0  0  0  0  0
    5.8514    0.1739    0.6379 O   0  0  0  0  0
    1.7505    2.5339    2.4239 S   0  0  0  0  0
  1  2  1  0  0  0
  3  6  1  0  0  0
  4  5  1  0  0  0
  4  7  1  0  0  0
  5 16  1  0  0  0
  6 17  1  0  0  0
  7 14  1  0  0  0
  8 10  1  0  0  0
  8 14  1  0  0  0
  9 11  1  0  0  0
  9 14  1  0  0  0
 10 12  1  0  0  0
 10 18  1  0  0  0
 11 13  1  0  0  0
 11 18  1  0  0  0
  1  3  2  0  0  0
  2  5  2  0  0  0
  4  6  2  0  0  0
  7 15  2  0  0  0
M  END
> <rmsd>
0.418891519

$$$$
ZINC92126367


 19 19  0  0  0  0  0  0  0  0999 V2000
    6.4926   -3.1258    1.9672 C   0  0  0  0  0
    5.2475   -3.7363    1.8166 C   0  0  0  0  0
    6.6728   -1.8014    1.5685 C   0  0  0  0  0
    4.3628   -1.6979    0.8683 C   0  0  0  0  0
    4.1827   -3.0224    1.2671 C   0  0  0  0  0
    5.6079   -1.0874    1.0188 C   0  0  0  0  0
    3.2396   -0.9449    0.2880 C   0  0  0  0  0
    0.5403    2.7982   -0.2836 C   0  0  0  0  0
    1.6019    0.0892    5.3272 C   0  0  0  0  0
    1.2359   -2.3716    5.4317 C   0  0  0  0  0
    1.7015    1.9762    0.2573 C   0  0  0  0  0
    1.3018    0.5457    0.5988 C   0  0  0  0  0
    2.5545   -0.1685    2.6037 C   0  0  0  0  0
    1.7550   -1.2818    3.2538 C   0  0  0  0  0
    2.4069   -0.2233    1.1321 N   0  0  0  0  0
    1.9559   -1.2481    4.7420 N   0  0  0  0  0
    3.1237   -0.9972   -0.9359 O   0  0  0  0  0
    2.9742   -3.6383    1.1301 O   0  0  0  0  0
    5.8057    0.2059    0.6367 O   0  0  0  0  0
  1  2  1  0  0  0
  3  6  1  0  0  0
  4  5  1  0  0  0
  4  7  1  0  0  0
  5 18  1  0  0  0
  6 19  1  0  0  0
  7 15  1  0  0  0
  8 11  1  0  0  0
  9 16  1  0  0  0
 10 16  1  0  0  0
 11 12  1  0  0  0
 12 15  1  0  0  0
 13 14  1  0  0  0
 13 15  1  0  0  0
 14 16  1  0  0  0
  1  3  2  0  0  0
  2  5  2  0  0  0
  4  6  2  0  0  0
  7 17  2  0  0  0
M  CHG  1  16   1
M  END
> <rmsd>
0.428057104

$$$$
ZINC92125779


 20 21  0  0  0  0  0  0  0  0999 V2000
    0.5466    5.2701    0.2835 C   0  0  0  0  0
    6.3531   -2.9649    2.3857 C   0  0  0  0  0
   -0.0617    3.1103   -0.6892 C   0  0  0  0  0
    1.5007    3.1925    1.1517 C   0  0  0  0  0
    0.0518    1.7205   -0.7236 C   0  0  0  0  0
    1.6141    1.8027    1.1174 C   0  0  0  0  0
    5.1452   -3.6369    2.1985 C   0  0  0  0  0
    6.5372   -1.6954    1.8378 C   0  0  0  0  0
    0.6628    3.8464    0.2484 C   0  0  0  0  0
    4.3054   -1.7698    0.9157 C   0  0  0  0  0
    0.8897    1.0667    0.1798 C   0  0  0  0  0
    4.1213   -3.0393    1.4635 C   0  0  0  0  0
    5.5133   -1.0979    1.1028 C   0  0  0  0  0
    3.2148   -1.1332    0.1319 C   0  0  0  0  0
    0.4522    6.4264    0.3119 N   0  0  0  0  0
    1.0045   -0.3385    0.1451 N   0  0  0  0  0
    2.0305   -0.9330    0.8136 N   0  0  0  0  0
    3.4200   -0.8165   -1.0371 O   0  0  0  0  0
    2.9488   -3.7135    1.2939 O   0  0  0  0  0
    5.7141    0.1436    0.5770 O   0  0  0  0  0
  2  7  1  0  0  0
  3  9  1  0  0  0
  4  6  1  0  0  0
  5 11  1  0  0  0
  8 13  1  0  0  0
  9  1  1  0  0  0
 10 12  1  0  0  0
 10 14  1  0  0  0
 11 16  1  0  0  0
 12 19  1  0  0  0
 13 20  1  0  0  0
 14 17  1  0  0  0
 16 17  1  0  0  0
  2  8  2  0  0  0
  3  5  2  0  0  0
  4  9  2  0  0  0
  6 11  2  0  0  0
  7 12  2  0  0  0
 10 13  2  0  0  0
 14 18  2  0  0  0
  1 15  3  0  0  0
M  END
> <rmsd>
0.248419344

$$$$
ZINC92126035


 19 19  0  0  0  0  0  0  0  0999 V2000
    6.3732   -3.1749    2.1893 C   0  0  0  0  0
    5.1062   -3.7417    2.0518 C   0  0  0  0  0
    6.6249   -1.8988    1.6852 C   0  0  0  0  0
    4.3425   -1.7566    0.9059 C   0  0  0  0  0
    4.0908   -3.0326    1.4102 C   0  0  0  0  0
    5.6095   -1.1898    1.0434 C   0  0  0  0  0
    3.2613   -1.0015    0.2218 C   0  0  0  0  0
   -0.1190    2.1673    0.0446 C   0  0  0  0  0
    1.1114    3.6295    3.8651 C   0  0  0  0  0
    1.7450    4.2027    1.5261 C   0  0  0  0  0
    0.9875   -0.0356    0.4519 C   0  0  0  0  0
    1.2887    1.8349    2.1476 C   0  0  0  0  0
    1.1103    1.4872    0.6602 C   0  0  0  0  0
    2.1342   -0.7387    0.9831 N   0  0  0  0  0
    0.9654    3.2611    2.4098 N   0  0  0  0  0
    3.4077   -0.6762   -0.9535 O   0  0  0  0  0
    2.8597   -3.6051    1.2878 O   0  0  0  0  0
    5.8769    0.0560    0.5589 O   0  0  0  0  0
    2.2504    1.9491   -0.0717 O   0  0  0  0  0
  1  2  1  0  0  0
  3  6  1  0  0  0
  4  5  1  0  0  0
  4  7  1  0  0  0
  5 17  1  0  0  0
  6 18  1  0  0  0
  7 14  1  0  0  0
  8 13  1  0  0  0
  9 15  1  0  0  0
 10 15  1  0  0  0
 11 13  1  0  0  0
 11 14  1  0  0  0
 12 13  1  0  0  0
 12 15  1  0  0  0
 13 19  1  0  0  0
  1  3  2  0  0  0
  2  5  2  0  0  0
  4  6  2  0  0  0
  7 16  2  0  0  0
M  CHG  1  15   1
M  END
> <rmsd>
0.380567461

$$$$
ZINC92120852


 18 18  0  0  0  0  0  0  0  0999 V2000
    6.3979   -3.2016    2.1617 C   0  0  0  0  0
    5.1287   -3.7652    2.0309 C   0  0  0  0  0
    6.6476   -1.9224    1.6646 C   0  0  0  0  0
    4.3591   -1.7706    0.9055 C   0  0  0  0  0
    4.1093   -3.0497    1.4028 C   0  0  0  0  0
    5.6282   -1.2070    1.0364 C   0  0  0  0  0
    3.2736   -1.0088    0.2359 C   0  0  0  0  0
    1.5180    4.3440   -0.2313 C   0  0  0  0  0
   -0.8991    5.0083   -0.0476 C   0  0  0  0  0
    0.3176    4.1286    1.9680 C   0  0  0  0  0
    1.0036   -0.0403    0.4920 C   0  0  0  0  0
    1.0950    1.4666    0.6902 C   0  0  0  0  0
    0.1788    4.0389    0.4457 C   0  0  0  0  0
    2.1468   -0.7453    1.0056 N   0  0  0  0  0
    3.4107   -0.6753   -0.9383 O   0  0  0  0  0
    2.8762   -3.6192    1.2866 O   0  0  0  0  0
    5.8938    0.0417    0.5585 O   0  0  0  0  0
   -0.3302    2.3330    0.0009 S   0  0  0  0  0
  1  2  1  0  0  0
  3  6  1  0  0  0
  4  5  1  0  0  0
  4  7  1  0  0  0
  5 16  1  0  0  0
  6 17  1  0  0  0
  7 14  1  0  0  0
  8 13  1  0  0  0
  9 13  1  0  0  0
 10 13  1  0  0  0
 11 12  1  0  0  0
 11 14  1  0  0  0
 12 18  1  0  0  0
 13 18  1  0  0  0
  1  3  2  0  0  0
  2  5  2  0  0  0
  4  6  2  0  0  0
  7 15  2  0  0  0
M  END
> <rmsd>
0.462480426

$$$$
ZINC92123573


 18 18  0  0  0  0  0  0  0  0999 V2000
    6.3013   -2.8320    2.5189 C   0  0  0  0  0
    5.1310   -3.5573    2.2954 C   0  0  0  0  0
    6.4613   -1.5715    1.9430 C   0  0  0  0  0
    4.2808   -1.7620    0.9202 C   0  0  0  0  0
    4.1208   -3.0223    1.4960 C   0  0  0  0  0
    5.4511   -1.0366    1.1437 C   0  0  0  0  0
    3.2053   -1.1923    0.0683 C   0  0  0  0  0
   -0.1092    4.5888   -0.9890 C   0  0  0  0  0
    0.0727   -1.6423   -0.6954 C   0  0  0  0  0
   -0.1118    0.2762    0.9237 C   0  0  0  0  0
   -0.3280    3.4985    0.0425 C   0  0  0  0  0
    0.5889    1.4477    1.6140 C   0  0  0  0  0
    0.8248   -0.4982   -0.0192 C   0  0  0  0  0
    1.9759   -1.0184    0.6835 N   0  0  0  0  0
    3.4460   -0.9313   -1.1075 O   0  0  0  0  0
    2.9851   -3.7479    1.2917 O   0  0  0  0  0
    5.6279    0.1970    0.5915 O   0  0  0  0  0
    1.2192    2.6302    0.3862 S   0  0  0  0  0
  1  2  1  0  0  0
  3  6  1  0  0  0
  4  5  1  0  0  0
  4  7  1  0  0  0
  5 16  1  0  0  0
  6 17  1  0  0  0
  7 14  1  0  0  0
  8 11  1  0  0  0
  9 13  1  0  0  0
 10 12  1  0  0  0
 10 13  1  0  0  0
 11 18  1  0  0  0
 12 18  1  0  0  0
 13 14  1  0  0  0
  1  3  2  0  0  0
  2  5  2  0  0  0
  4  6  2  0  0  0
  7 15  2  0  0  0
M  END
> <rmsd>
0.432296306

$$$$
ZINC92123573


 18 18  0  0  0  0  0  0  0  0999 V2000
    6.3013   -2.8316    2.5189 C   0  0  0  0  0
    5.1310   -3.5569    2.2956 C   0  0  0  0  0
    6.4611   -1.5711    1.9431 C   0  0  0  0  0
    4.2806   -1.7616    0.9205 C   0  0  0  0  0
    4.1207   -3.0220    1.4964 C   0  0  0  0  0
    5.4508   -1.0362    1.1439 C   0  0  0  0  0
    3.2050   -1.1920    0.0688 C   0  0  0  0  0
    3.1605    4.5422    0.6449 C   0  0  0  0  0
    0.0722   -1.6421   -0.6947 C   0  0  0  0  0
   -0.1121    0.2764    0.9244 C   0  0  0  0  0
    2.4423    3.4589    1.4271 C   0  0  0  0  0
    0.5887    1.4479    1.6147 C   0  0  0  0  0
    0.8244   -0.4980   -0.0185 C   0  0  0  0  0
    1.9756   -1.0182    0.6840 N   0  0  0  0  0
    3.4456   -0.9311   -1.1071 O   0  0  0  0  0
    2.9849   -3.7477    1.2921 O   0  0  0  0  0
    5.6276    0.1974    0.5917 O   0  0  0  0  0
    1.2187    2.6304    0.3868 S   0  0  0  0  0
  1  2  1  0  0  0
  3  6  1  0  0  0
  4  5  1  0  0  0
  4  7  1  0  0  0
  5 16  1  0  0  0
  6 17  1  0  0  0
  7 14  1  0  0  0
  8 11  1  0  0  0
  9 13  1  0  0  0
 10 12  1  0  0  0
 10 13  1  0  0  0
 11 18  1  0  0  0
 12 18  1  0  0  0
 13 14  1  0  0  0
  1  3  2  0  0  0
  2  5  2  0  0  0
  4  6  2  0  0  0
  7 15  2  0  0  0
M  END
> <rmsd>
0.432148963

$$$$
ZINC92122801


 20 21  0  0  0  0  0  0  0  0999 V2000
    0.8529    3.9173    0.3244 C   0  0  0  0  0
    1.1846    3.2664   -0.8637 C   0  0  0  0  0
    6.3408   -2.9349    2.4173 C   0  0  0  0  0
    0.5207    3.1745    1.4574 C   0  0  0  0  0
    1.1842    1.8727   -0.9191 C   0  0  0  0  0
    5.1406   -3.6174    2.2197 C   0  0  0  0  0
    6.5213   -1.6670    1.8646 C   0  0  0  0  0
    4.3014   -1.7643    0.9163 C   0  0  0  0  0
    0.5203    1.7808    1.4021 C   0  0  0  0  0
    0.8520    1.1298    0.2138 C   0  0  0  0  0
    4.1208   -3.0322    1.4691 C   0  0  0  0  0
    5.5016   -1.0817    1.1140 C   0  0  0  0  0
    3.2354   -1.1524    0.1309 C   0  0  0  0  0
    1.3045    0.9623    3.6385 C   0  0  0  0  0
    0.1623    1.0060    2.6279 C   0  0  0  0  0
    0.8576   -0.3692    0.1299 C   0  0  0  0  0
    2.0147   -0.9429    0.7787 N   0  0  0  0  0
    3.4234   -0.8603   -1.0611 O   0  0  0  0  0
    2.9557   -3.7166    1.2894 O   0  0  0  0  0
    5.6988    0.1584    0.5836 O   0  0  0  0  0
  1  2  1  0  0  0
  3  6  1  0  0  0
  4  9  1  0  0  0
  5 10  1  0  0  0
  7 12  1  0  0  0
  8 11  1  0  0  0
  8 13  1  0  0  0
 11 19  1  0  0  0
 12 20  1  0  0  0
 13 17  1  0  0  0
 14 15  1  0  0  0
 15  9  1  0  0  0
 16 10  1  0  0  0
 16 17  1  0  0  0
  1  4  2  0  0  0
  2  5  2  0  0  0
  3  7  2  0  0  0
  6 11  2  0  0  0
  8 12  2  0  0  0
  9 10  2  0  0  0
 13 18  2  0  0  0
M  END
> <rmsd>
0.284669608

$$$$
ZINC92107594


 20 21  0  0  0  0  0  0  0  0999 V2000
    6.5183   -3.0725    2.0794 C   0  0  0  0  0
    1.8012    3.3014    0.7587 C   0  0  0  0  0
    0.9438    2.8363   -1.4516 C   0  0  0  0  0
    1.5904    1.9709    1.1204 C   0  0  0  0  0
    0.7331    1.5058   -1.0899 C   0  0  0  0  0
    5.3030   -3.7455    1.9542 C   0  0  0  0  0
    6.6419   -1.7634    1.6138 C   0  0  0  0  0
    4.3348   -1.8003    0.8977 C   0  0  0  0  0
    1.4777    3.7341   -0.5273 C   0  0  0  0  0
    1.0565    1.0730    0.1961 C   0  0  0  0  0
    4.2112   -3.1094    1.3634 C   0  0  0  0  0
    5.5502   -1.1274    1.0230 C   0  0  0  0  0
    3.1935   -1.1352    0.2792 C   0  0  0  0  0
    1.7027    5.1566   -0.9149 C   0  0  0  0  0
    0.2317   -1.2005   -0.5455 C   0  0  0  0  0
    0.8298   -0.3709    0.5889 C   0  0  0  0  0
    2.0475   -0.9864    1.0656 N   0  0  0  0  0
    3.2562   -0.7479   -0.8988 O   0  0  0  0  0
    3.0327   -3.7853    1.2520 O   0  0  0  0  0
    5.6927    0.1523    0.5756 O   0  0  0  0  0
  1  6  1  0  0  0
  2  9  1  0  0  0
  3  5  1  0  0  0
  4 10  1  0  0  0
  7 12  1  0  0  0
  8 11  1  0  0  0
  8 13  1  0  0  0
 11 19  1  0  0  0
 12 20  1  0  0  0
 13 17  1  0  0  0
 14  9  1  0  0  0
 15 16  1  0  0  0
 16 10  1  0  0  0
 16 17  1  0  0  0
  1  7  2  0  0  0
  2  4  2  0  0  0
  3  9  2  0  0  0
  5 10  2  0  0  0
  6 11  2  0  0  0
  8 12  2  0  0  0
 13 18  2  0  0  0
M  END
> <rmsd>
0.44019267

$$$$
ZINC92107552


 20 22  0  0  0  0  0  0  0  0999 V2000
    6.5060   -3.1000    2.0505 C   0  0  0  0  0
    5.2799   -3.7544    1.9334 C   0  0  0  0  0
    6.6444   -1.7905    1.5905 C   0  0  0  0  0
    1.8711    2.1401    0.8267 C   0  0  0  0  0
    1.7309    3.2385    0.0043 C   0  0  0  0  0
    4.3304   -1.7899    0.8960 C   0  0  0  0  0
    1.1218    1.0995    0.2257 C   0  0  0  0  0
    4.1921   -3.0994    1.3561 C   0  0  0  0  0
    5.5567   -1.1355    1.0131 C   0  0  0  0  0
    0.5680    1.6561   -0.9067 C   0  0  0  0  0
    3.1721   -1.0924    0.2805 C   0  0  0  0  0
   -0.3132    1.0066   -1.8998 C   0  0  0  0  0
   -0.8619   -0.3030   -1.2992 C   0  0  0  0  0
    0.2250   -1.1033   -0.5504 C   0  0  0  0  0
    0.8441   -0.3092    0.6274 C   0  0  0  0  0
    2.0548   -0.9424    1.0888 N   0  0  0  0  0
    3.2506   -0.7125   -0.8849 O   0  0  0  0  0
    0.9338    2.9495   -1.0619 O   0  0  0  0  0
    3.0028   -3.7575    1.2525 O   0  0  0  0  0
    5.7136    0.1443    0.5710 O   0  0  0  0  0
  1  2  1  0  0  0
  3  9  1  0  0  0
  4  7  1  0  0  0
  5 18  1  0  0  0
  6  8  1  0  0  0
  6 11  1  0  0  0
  8 19  1  0  0  0
  9 20  1  0  0  0
 10 18  1  0  0  0
 11 16  1  0  0  0
 12 10  1  0  0  0
 12 13  1  0  0  0
 13 14  1  0  0  0
 14 15  1  0  0  0
 15  7  1  0  0  0
 15 16  1  0  0  0
  1  3  2  0  0  0
  2  8  2  0  0  0
  4  5  2  0  0  0
  6  9  2  0  0  0
  7 10  2  0  0  0
 11 17  2  0  0  0
M  END
> <rmsd>
0.42981872

$$$$
ZINC92107552


 20 22  0  0  0  0  0  0  0  0999 V2000
    6.4449   -3.2219    2.0054 C   0  0  0  0  0
    5.1766   -3.7939    1.9072 C   0  0  0  0  0
    6.6610   -1.9219    1.5482 C   0  0  0  0  0
    0.0175    0.2204    3.1706 C   0  0  0  0  0
   -0.6184    1.2867    3.7716 C   0  0  0  0  0
    4.3403   -1.7661    0.8945 C   0  0  0  0  0
    0.3129    0.6322    1.8482 C   0  0  0  0  0
    4.1243   -3.0661    1.3518 C   0  0  0  0  0
    5.6087   -1.1941    0.9928 C   0  0  0  0  0
   -0.1866    1.9122    1.7446 C   0  0  0  0  0
    3.2199   -0.9910    0.3024 C   0  0  0  0  0
   -0.1530    2.8076    0.5692 C   0  0  0  0  0
    0.1838    1.9743   -0.6835 C   0  0  0  0  0
    1.3137    0.9558   -0.4218 C   0  0  0  0  0
    0.9546   -0.0586    0.6932 C   0  0  0  0  0
    2.1289   -0.7722    1.1308 N   0  0  0  0  0
    3.3029   -0.6110   -0.8627 O   0  0  0  0  0
   -0.7466    2.3288    2.9038 O   0  0  0  0  0
    2.8927   -3.6443    1.2664 O   0  0  0  0  0
    5.8417    0.0750    0.5531 O   0  0  0  0  0
  1  2  1  0  0  0
  3  9  1  0  0  0
  4  7  1  0  0  0
  5 18  1  0  0  0
  6  8  1  0  0  0
  6 11  1  0  0  0
  8 19  1  0  0  0
  9 20  1  0  0  0
 10 18  1  0  0  0
 11 16  1  0  0  0
 12 10  1  0  0  0
 12 13  1  0  0  0
 13 14  1  0  0  0
 14 15  1  0  0  0
 15  7  1  0  0  0
 15 16  1  0  0  0
  1  3  2  0  0  0
  2  8  2  0  0  0
  4  5  2  0  0  0
  6  9  2  0  0  0
  7 10  2  0  0  0
 11 17  2  0  0  0
M  END
> <rmsd>
0.334452987

$$$$
ZINC92107553


 20 22  0  0  0  0  0  0  0  0999 V2000
    6.4782   -3.3017    1.8402 C   0  0  0  0  0
    5.1968   -3.8495    1.7802 C   0  0  0  0  0
    6.6958   -1.9890    1.4217 C   0  0  0  0  0
   -0.0124   -2.0102   -0.5300 C   0  0  0  0  0
   -0.6921   -1.9983   -1.7303 C   0  0  0  0  0
    4.3508   -1.7718    0.8832 C   0  0  0  0  0
    0.3001   -0.6597   -0.2422 C   0  0  0  0  0
    4.1330   -3.0845    1.3017 C   0  0  0  0  0
    5.6322   -1.2240    0.9432 C   0  0  0  0  0
   -0.2316    0.0694   -1.2832 C   0  0  0  0  0
    3.2181   -0.9570    0.3729 C   0  0  0  0  0
   -0.1899    1.5338   -1.4794 C   0  0  0  0  0
    0.2059    2.2056   -0.1488 C   0  0  0  0  0
    1.3548    1.4613    0.5651 C   0  0  0  0  0
    0.9912   -0.0050    0.9036 C   0  0  0  0  0
    2.1704   -0.7524    1.2588 N   0  0  0  0  0
    3.2540   -0.5350   -0.7799 O   0  0  0  0  0
   -0.8299   -0.7266   -2.1996 O   0  0  0  0  0
    2.8889   -3.6393    1.2527 O   0  0  0  0  0
    5.8670    0.0567    0.5402 O   0  0  0  0  0
  1  2  1  0  0  0
  3  9  1  0  0  0
  4  7  1  0  0  0
  5 18  1  0  0  0
  6  8  1  0  0  0
  6 11  1  0  0  0
  8 19  1  0  0  0
  9 20  1  0  0  0
 10 18  1  0  0  0
 11 16  1  0  0  0
 12 10  1  0  0  0
 12 13  1  0  0  0
 13 14  1  0  0  0
 14 15  1  0  0  0
 15  7  1  0  0  0
 15 16  1  0  0  0
  1  3  2  0  0  0
  2  8  2  0  0  0
  4  5  2  0  0  0
  6  9  2  0  0  0
  7 10  2  0  0  0
 11 17  2  0  0  0
M  END
> <rmsd>
0.440080732

$$$$
ZINC83251288


 18 18  0  0  0  0  0  0  0  0999 V2000
    1.6112    1.6856   -0.3238 C   0  0  0  0  0
   -0.9996    1.6160    0.6568 C   0  0  0  0  0
    1.2189    0.6659    0.5431 C   0  0  0  0  0
   -0.0865    0.6310    1.0334 C   0  0  0  0  0
   -0.6072    2.6358   -0.2102 C   0  0  0  0  0
    0.6982    2.6707   -0.7005 C   0  0  0  0  0
    3.9905   -1.8494    0.8959 C   0  0  0  0  0
    3.2141   -0.7896    0.1637 C   0  0  0  0  0
   -1.0359   -1.5343    1.2906 C   0  0  0  0  0
   -1.5990    4.7445    0.2649 C   0  0  0  0  0
    5.2346   -1.5501    1.0978 N   0  0  0  0  0
    3.2894   -2.9722    1.2520 N   0  0  0  0  0
    2.1441   -0.3139    0.9108 N   0  0  0  0  0
    3.6056   -0.4895   -0.9515 O   0  0  0  0  0
    5.5104   -0.2889    0.5615 O   0  0  0  0  0
   -0.4900   -0.3571    1.8815 O   0  0  0  0  0
   -1.5198    3.5853   -0.5616 O   0  0  0  0  0
    1.2097    3.9206   -1.7737 Cl  0  0  0  0  0
  1  3  1  0  0  0
  2  4  1  0  0  0
  3 13  1  0  0  0
  4 16  1  0  0  0
  5  6  1  0  0  0
  5 17  1  0  0  0
  6 18  1  0  0  0
  7  8  1  0  0  0
  7 12  1  0  0  0
  8 13  1  0  0  0
  9 16  1  0  0  0
 10 17  1  0  0  0
 11 15  1  0  0  0
  1  6  2  0  0  0
  2  5  2  0  0  0
  3  4  2  0  0  0
  7 11  2  0  0  0
  8 14  2  0  0  0
M  END
> <rmsd>
0.425509065

$$$$
ZINC92107568


 20 21  0  0  0  0  0  0  0  0999 V2000
    6.3352   -2.9307    2.4253 C   0  0  0  0  0
    1.1750    3.2811   -0.8300 C   0  0  0  0  0
    1.1839    1.8934   -0.9157 C   0  0  0  0  0
    5.1353   -3.6132    2.2259 C   0  0  0  0  0
    6.5176   -1.6639    1.8705 C   0  0  0  0  0
    0.8313    3.8537    0.3839 C   0  0  0  0  0
    4.3001   -1.7624    0.9166 C   0  0  0  0  0
    0.8536    1.1314    0.1994 C   0  0  0  0  0
    4.1177   -3.0291    1.4715 C   0  0  0  0  0
    5.5001   -1.0798    1.1162 C   0  0  0  0  0
    0.5244    1.8003    1.3674 C   0  0  0  0  0
    3.2365   -1.1517    0.1273 C   0  0  0  0  0
   -0.1357    1.8339    3.6519 C   0  0  0  0  0
    0.8590   -0.3678    0.1185 C   0  0  0  0  0
    0.5045    3.1466    1.4888 N   0  0  0  0  0
    2.0141   -0.9405    0.7715 N   0  0  0  0  0
    3.4277   -0.8620   -1.0648 O   0  0  0  0  0
    2.9528   -3.7135    1.2900 O   0  0  0  0  0
    5.6991    0.1592    0.5839 O   0  0  0  0  0
    0.1913    1.0844    2.4880 O   0  0  0  0  0
  1  4  1  0  0  0
  2  3  1  0  0  0
  5 10  1  0  0  0
  6 15  1  0  0  0
  7  9  1  0  0  0
  7 12  1  0  0  0
  8 11  1  0  0  0
  9 18  1  0  0  0
 10 19  1  0  0  0
 11 20  1  0  0  0
 12 16  1  0  0  0
 13 20  1  0  0  0
 14  8  1  0  0  0
 14 16  1  0  0  0
  1  5  2  0  0  0
  2  6  2  0  0  0
  3  8  2  0  0  0
  4  9  2  0  0  0
  7 10  2  0  0  0
 11 15  2  0  0  0
 12 17  2  0  0  0
M  END
> <rmsd>
0.283235729

$$$$
ZINC92107568


 20 21  0  0  0  0  0  0  0  0999 V2000
    6.3379   -2.9330    2.4211 C   0  0  0  0  0
    0.5180    3.1537    1.4650 C   0  0  0  0  0
    0.5191    1.7648    1.3991 C   0  0  0  0  0
    5.1378   -3.6154    2.2225 C   0  0  0  0  0
    6.5195   -1.6657    1.8675 C   0  0  0  0  0
    0.8555    3.8576    0.3202 C   0  0  0  0  0
    4.3007   -1.7632    0.9165 C   0  0  0  0  0
    0.8530    1.1312    0.2072 C   0  0  0  0  0
    4.1191   -3.0305    1.4702 C   0  0  0  0  0
    5.5008   -1.0808    1.1152 C   0  0  0  0  0
    1.1753    1.9257   -0.8813 C   0  0  0  0  0
    3.2359   -1.1516    0.1293 C   0  0  0  0  0
    1.8311    2.2126   -3.1492 C   0  0  0  0  0
    0.8584   -0.3679    0.1246 C   0  0  0  0  0
    1.1853    3.2773   -0.8554 N   0  0  0  0  0
    2.0144   -0.9413    0.7754 N   0  0  0  0  0
    3.4255   -0.8606   -1.0628 O   0  0  0  0  0
    2.9540   -3.7148    1.2896 O   0  0  0  0  0
    5.6991    0.1588    0.5840 O   0  0  0  0  0
    1.5116    1.3386   -2.0734 O   0  0  0  0  0
  1  4  1  0  0  0
  2  3  1  0  0  0
  5 10  1  0  0  0
  6 15  1  0  0  0
  7  9  1  0  0  0
  7 12  1  0  0  0
  8 11  1  0  0  0
  9 18  1  0  0  0
 10 19  1  0  0  0
 11 20  1  0  0  0
 12 16  1  0  0  0
 13 20  1  0  0  0
 14  8  1  0  0  0
 14 16  1  0  0  0
  1  5  2  0  0  0
  2  6  2  0  0  0
  3  8  2  0  0  0
  4  9  2  0  0  0
  7 10  2  0  0  0
 11 15  2  0  0  0
 12 17  2  0  0  0
M  END
> <rmsd>
0.283811182

$$$$
ZINC92120466


 20 21  0  0  0  0  0  0  0  0999 V2000
    6.3358   -2.9361    2.4175 C   0  0  0  0  0
    0.5321    3.1445    1.4537 C   0  0  0  0  0
    5.1338   -3.6157    2.2201 C   0  0  0  0  0
    6.5194   -1.6688    1.8644 C   0  0  0  0  0
    0.5245    1.7547    1.4101 C   0  0  0  0  0
    0.8675    3.8683    0.3149 C   0  0  0  0  0
    4.2992   -1.7609    0.9162 C   0  0  0  0  0
    4.1155   -3.0281    1.4694 C   0  0  0  0  0
    5.5011   -1.0812    1.1137 C   0  0  0  0  0
    0.8570    1.1415    0.2130 C   0  0  0  0  0
    1.1848    3.1605   -0.8332 C   0  0  0  0  0
    3.2348   -1.1465    0.1306 C   0  0  0  0  0
    1.8354    3.0772   -3.1191 C   0  0  0  0  0
    0.8590   -0.3575    0.1294 C   0  0  0  0  0
    1.1882    1.8110   -0.9138 N   0  0  0  0  0
    2.0146   -0.9339    0.7784 N   0  0  0  0  0
    3.4235   -0.8552   -1.0615 O   0  0  0  0  0
    2.9487   -3.7097    1.2898 O   0  0  0  0  0
    5.7015    0.1582    0.5830 O   0  0  0  0  0
    1.5182    3.8515   -1.9687 O   0  0  0  0  0
  1  3  1  0  0  0
  2  5  1  0  0  0
  4  9  1  0  0  0
  6 11  1  0  0  0
  7  8  1  0  0  0
  7 12  1  0  0  0
  8 18  1  0  0  0
  9 19  1  0  0  0
 10 15  1  0  0  0
 11 20  1  0  0  0
 12 16  1  0  0  0
 13 20  1  0  0  0
 14 10  1  0  0  0
 14 16  1  0  0  0
  1  4  2  0  0  0
  2  6  2  0  0  0
  3  8  2  0  0  0
  5 10  2  0  0  0
  7  9  2  0  0  0
 11 15  2  0  0  0
 12 17  2  0  0  0
M  END
> <rmsd>
0.278209746

$$$$
ZINC92120466


 20 21  0  0  0  0  0  0  0  0999 V2000
    6.3309   -2.9323    2.4255 C   0  0  0  0  0
    1.1802    3.2689   -0.8145 C   0  0  0  0  0
    5.1293   -3.6121    2.2264 C   0  0  0  0  0
    6.5160   -1.6661    1.8703 C   0  0  0  0  0
    1.1917    1.8827   -0.9228 C   0  0  0  0  0
    0.8402    3.8632    0.3958 C   0  0  0  0  0
    4.2982   -1.7598    0.9168 C   0  0  0  0  0
    4.1130   -3.0259    1.4720 C   0  0  0  0  0
    5.4997   -1.0799    1.1159 C   0  0  0  0  0
    0.8581    1.1417    0.1994 C   0  0  0  0  0
    0.5221    3.0335    1.4589 C   0  0  0  0  0
    3.2358   -1.1468    0.1274 C   0  0  0  0  0
   -0.1334    2.6995    3.7204 C   0  0  0  0  0
    0.8601   -0.3575    0.1188 C   0  0  0  0  0
    0.5224    1.6832    1.3917 N   0  0  0  0  0
    2.0140   -0.9328    0.7718 N   0  0  0  0  0
    3.4274   -0.8579   -1.0648 O   0  0  0  0  0
    2.9465   -3.7077    1.2909 O   0  0  0  0  0
    5.7015    0.1585    0.5833 O   0  0  0  0  0
    0.1843    3.5955    2.6621 O   0  0  0  0  0
  1  3  1  0  0  0
  2  5  1  0  0  0
  4  9  1  0  0  0
  6 11  1  0  0  0
  7  8  1  0  0  0
  7 12  1  0  0  0
  8 18  1  0  0  0
  9 19  1  0  0  0
 10 15  1  0  0  0
 11 20  1  0  0  0
 12 16  1  0  0  0
 13 20  1  0  0  0
 14 10  1  0  0  0
 14 16  1  0  0  0
  1  4  2  0  0  0
  2  6  2  0  0  0
  3  8  2  0  0  0
  5 10  2  0  0  0
  7  9  2  0  0  0
 11 15  2  0  0  0
 12 17  2  0  0  0
M  END
> <rmsd>
0.277357519

$$$$
ZINC94941571


 20 21  0  0  0  0  0  0  0  0999 V2000
    0.0211    3.0272    0.1768 C   0  0  0  0  0
    1.2203    3.0465   -0.5291 C   0  0  0  0  0
   -0.4521    1.8313    0.7175 C   0  0  0  0  0
    1.9510    1.8699   -0.6970 C   0  0  0  0  0
   -0.1910   -0.5752    1.0957 C   0  0  0  0  0
    0.5396   -1.7518    0.9276 C   0  0  0  0  0
    0.2703    0.6375    0.5582 C   0  0  0  0  0
    1.4898    0.6571   -0.1597 C   0  0  0  0  0
    1.7389   -1.7326    0.2217 C   0  0  0  0  0
    2.2121   -0.5367   -0.3189 C   0  0  0  0  0
    1.7052   -4.1050   -0.6543 C   0  0  0  0  0
    4.0657   -3.0744    3.5328 C   0  0  0  0  0
    6.3361   -1.7945    1.9942 C   0  0  0  0  0
    5.2973   -2.7326    1.3766 C   0  0  0  0  0
    5.8860   -0.3408    1.9261 C   0  0  0  0  0
    2.5128   -3.0196    0.0529 C   0  0  0  0  0
    3.9318   -2.6987    2.0831 C   0  0  0  0  0
    2.9847   -3.5854    1.3407 N   0  0  0  0  0
    3.3937   -0.5493   -1.0072 O   0  0  0  0  0
    5.7126    0.0231    0.5635 O   0  0  0  0  0
  1  2  1  0  0  0
  3  7  1  0  0  0
  4  8  1  0  0  0
  5  7  1  0  0  0
  6  9  1  0  0  0
  8 10  1  0  0  0
 10 19  1  0  0  0
 11 16  1  0  0  0
 12 17  1  0  0  0
 13 14  1  0  0  0
 13 15  1  0  0  0
 14 17  1  0  0  0
 15 20  1  0  0  0
 16  9  1  0  0  0
 16 18  1  0  0  0
 17 18  1  0  0  0
  1  3  2  0  0  0
  2  4  2  0  0  0
  5  6  2  0  0  0
  7  8  2  0  0  0
  9 10  2  0  0  0
M  CHG  1  18   1
M  END
> <rmsd>
0.260769904

$$$$
ZINC94336600


 19 20  0  0  0  0  0  0  0  0999 V2000
    2.1805   -0.4176    2.0104 C   0  0  0  0  0
    1.3023    0.6480    1.8467 C   0  0  0  0  0
    2.9913   -0.8116    0.9519 C   0  0  0  0  0
    1.2734    1.2813    0.6148 C   0  0  0  0  0
    2.8867   -0.1131   -0.2401 C   0  0  0  0  0
    3.9127   -1.9253    1.1159 C   0  0  0  0  0
    4.1586   -3.2103   -3.2634 C   0  0  0  0  0
    3.2723   -1.9517   -3.3133 C   0  0  0  0  0
    4.7964   -2.6281   -1.9880 C   0  0  0  0  0
    3.4984   -1.8099   -1.7900 C   0  0  0  0  0
    0.3429    2.4288    0.4043 C   0  0  0  0  0
    2.0457    0.9269   -0.4367 N   0  0  0  0  0
    5.1946   -1.6591    0.9395 N   0  0  0  0  0
    3.4843   -3.2159    1.4409 N   0  0  0  0  0
    5.4111   -0.3147    0.6202 O   0  0  0  0  0
    3.6639   -0.4682   -1.3028 O   0  0  0  0  0
   -0.4064    2.7339    1.5045 F   0  0  0  0  0
    0.9768    3.5916    0.0710 F   0  0  0  0  0
   -0.5540    2.1995   -0.5982 F   0  0  0  0  0
  1  2  1  0  0  0
  3  5  1  0  0  0
  3  6  1  0  0  0
  4 12  1  0  0  0
  5 16  1  0  0  0
  6 14  1  0  0  0
  7  8  1  0  0  0
  7  9  1  0  0  0
  8 10  1  0  0  0
  9 10  1  0  0  0
 10 16  1  0  0  0
 11  4  1  0  0  0
 11 17  1  0  0  0
 11 18  1  0  0  0
 11 19  1  0  0  0
 13 15  1  0  0  0
  1  3  2  0  0  0
  2  4  2  0  0  0
  5 12  2  0  0  0
  6 13  2  0  0  0
M  END
> <rmsd>
0.453480244

$$$$
ZINC92103450


 20 21  0  0  0  0  0  0  0  0999 V2000
    6.2797   -3.1051    2.3212 C   0  0  0  0  0
   -0.6085    1.1736    1.2528 C   0  0  0  0  0
    0.5810    1.7892   -0.7578 C   0  0  0  0  0
    5.0156   -3.6715    2.1580 C   0  0  0  0  0
    6.5576   -1.8510    1.7773 C   0  0  0  0  0
   -1.1313    2.4639    1.3387 C   0  0  0  0  0
    0.0583    3.0796   -0.6721 C   0  0  0  0  0
    4.3072   -1.7299    0.9068 C   0  0  0  0  0
    0.2476    0.8362    0.2046 C   0  0  0  0  0
    4.0293   -2.9839    1.4507 C   0  0  0  0  0
    5.5714   -1.1634    1.0700 C   0  0  0  0  0
   -0.7979    3.4168    0.3762 C   0  0  0  0  0
    3.2762   -1.0111    0.1667 C   0  0  0  0  0
    2.0249   -0.4340    2.2579 C   0  0  0  0  0
    0.8101   -0.5527    0.1112 C   0  0  0  0  0
    2.0799   -0.6776    0.8234 N   0  0  0  0  0
    3.5311   -0.7248   -1.0088 O   0  0  0  0  0
    2.8005   -3.5557    1.3040 O   0  0  0  0  0
    5.8640    0.0611    0.5476 O   0  0  0  0  0
   -1.3019    4.6553    0.4570 F   0  0  0  0  0
  1  4  1  0  0  0
  2  9  1  0  0  0
  3  7  1  0  0  0
  5 11  1  0  0  0
  6 12  1  0  0  0
  8 10  1  0  0  0
  8 13  1  0  0  0
 10 18  1  0  0  0
 11 19  1  0  0  0
 12 20  1  0  0  0
 13 16  1  0  0  0
 14 16  1  0  0  0
 15  9  1  0  0  0
 15 16  1  0  0  0
  1  5  2  0  0  0
  2  6  2  0  0  0
  3  9  2  0  0  0
  4 10  2  0  0  0
  7 12  2  0  0  0
  8 11  2  0  0  0
 13 17  2  0  0  0
M  END
> <rmsd>
0.438158572

$$$$
ZINC92120943


 20 21  0  0  0  0  0  0  0  0999 V2000
    6.3154   -2.9294    2.4317 C   0  0  0  0  0
    5.1114   -3.6044    2.2315 C   0  0  0  0  0
    6.5073   -1.6651    1.8746 C   0  0  0  0  0
    0.4280    2.0719   -0.7379 C   0  0  0  0  0
    4.2910   -1.7508    0.9168 C   0  0  0  0  0
    0.8792    1.1757    0.2000 C   0  0  0  0  0
    4.0991   -3.0151    1.4741 C   0  0  0  0  0
    5.4951   -1.0758    1.1171 C   0  0  0  0  0
    1.3576    1.9787    1.2526 C   0  0  0  0  0
    3.2329   -1.1348    0.1242 C   0  0  0  0  0
    1.9574    1.5379    2.5241 C   0  0  0  0  0
   -0.4313   -0.9375    0.6579 C   0  0  0  0  0
    0.3461    4.5746   -0.8323 C   0  0  0  0  0
    0.8606   -0.3350    0.1093 C   0  0  0  0  0
    1.2231    3.2847    1.0069 N   0  0  0  0  0
    0.6551    3.3091   -0.2108 N   0  0  0  0  0
    2.0108   -0.9140    0.7657 N   0  0  0  0  0
    3.4281   -0.8489   -1.0683 O   0  0  0  0  0
    2.9300   -3.6920    1.2919 O   0  0  0  0  0
    5.7033    0.1606    0.5824 O   0  0  0  0  0
  1  2  1  0  0  0
  3  8  1  0  0  0
  4 16  1  0  0  0
  5  7  1  0  0  0
  5 10  1  0  0  0
  6  9  1  0  0  0
  7 19  1  0  0  0
  8 20  1  0  0  0
 10 17  1  0  0  0
 11  9  1  0  0  0
 12 14  1  0  0  0
 13 16  1  0  0  0
 14  6  1  0  0  0
 14 17  1  0  0  0
 16 15  1  0  0  0
  1  3  2  0  0  0
  2  7  2  0  0  0
  4  6  2  0  0  0
  5  8  2  0  0  0
  9 15  2  0  0  0
 10 18  2  0  0  0
M  END
> <rmsd>
0.277979702

$$$$
ZINC89460515


 20 21  0  0  0  0  0  0  0  0999 V2000
    6.3174   -2.9371    2.4254 C   0  0  0  0  0
    5.1113   -3.6088    2.2268 C   0  0  0  0  0
    6.5112   -1.6724    1.8697 C   0  0  0  0  0
    1.1795    2.0593   -0.8048 C   0  0  0  0  0
    4.2925   -1.7513    0.9167 C   0  0  0  0  0
    0.8722    1.1733    0.1987 C   0  0  0  0  0
    4.0988   -3.0159    1.4724 C   0  0  0  0  0
    5.4987   -1.0795    1.1153 C   0  0  0  0  0
    0.5706    1.9876    1.3069 C   0  0  0  0  0
    3.2342   -1.1314    0.1272 C   0  0  0  0  0
    1.3130    1.6635    3.6797 C   0  0  0  0  0
    1.2688    4.5604   -0.9296 C   0  0  0  0  0
    0.8639   -0.3259    0.1188 C   0  0  0  0  0
    0.1726    1.5605    2.6597 C   0  0  0  0  0
    0.6769    3.2906    1.0333 N   0  0  0  0  0
    1.0487    3.3019   -0.2580 N   0  0  0  0  0
    2.0140   -0.9087    0.7718 N   0  0  0  0  0
    3.4276   -0.8443   -1.0651 O   0  0  0  0  0
    2.9276   -3.6898    1.2919 O   0  0  0  0  0
    5.7088    0.1572    0.5821 O   0  0  0  0  0
  1  2  1  0  0  0
  3  8  1  0  0  0
  4 16  1  0  0  0
  5  7  1  0  0  0
  5 10  1  0  0  0
  6  9  1  0  0  0
  7 19  1  0  0  0
  8 20  1  0  0  0
 10 17  1  0  0  0
 11 14  1  0  0  0
 12 16  1  0  0  0
 13  6  1  0  0  0
 13 17  1  0  0  0
 14  9  1  0  0  0
 16 15  1  0  0  0
  1  3  2  0  0  0
  2  7  2  0  0  0
  4  6  2  0  0  0
  5  8  2  0  0  0
  9 15  2  0  0  0
 10 18  2  0  0  0
M  END
> <rmsd>
0.266570747

$$$$
ZINC92120942


 20 21  0  0  0  0  0  0  0  0999 V2000
    6.4897   -3.0706    2.1015 C   0  0  0  0  0
    5.2695   -3.7340    1.9727 C   0  0  0  0  0
    6.6274   -1.7654    1.6291 C   0  0  0  0  0
    0.8241    1.6889   -1.0601 C   0  0  0  0  0
    4.3245   -1.7869    0.8988 C   0  0  0  0  0
    1.0752    1.1100    0.1599 C   0  0  0  0  0
    4.1869   -3.0922    1.3713 C   0  0  0  0  0
    5.5448   -1.1236    1.0277 C   0  0  0  0  0
    1.6033    2.1540    0.9429 C   0  0  0  0  0
    3.1928   -1.1159    0.2693 C   0  0  0  0  0
    2.0492    2.0940    2.3460 C   0  0  0  0  0
    0.2356   -1.1608   -0.5735 C   0  0  0  0  0
    1.1282    4.0060   -1.9644 C   0  0  0  0  0
    0.8338   -0.3297    0.5597 C   0  0  0  0  0
    1.6836    3.3086    0.2763 N   0  0  0  0  0
    1.2027    2.9935   -0.9385 N   0  0  0  0  0
    2.0432   -0.9526    1.0476 N   0  0  0  0  0
    3.2660   -0.7360   -0.9105 O   0  0  0  0  0
    3.0033   -3.7587    1.2566 O   0  0  0  0  0
    5.7009    0.1521    0.5737 O   0  0  0  0  0
  1  2  1  0  0  0
  3  8  1  0  0  0
  4 16  1  0  0  0
  5  7  1  0  0  0
  5 10  1  0  0  0
  6  9  1  0  0  0
  7 19  1  0  0  0
  8 20  1  0  0  0
 10 17  1  0  0  0
 11  9  1  0  0  0
 12 14  1  0  0  0
 13 16  1  0  0  0
 14  6  1  0  0  0
 14 17  1  0  0  0
 16 15  1  0  0  0
  1  3  2  0  0  0
  2  7  2  0  0  0
  4  6  2  0  0  0
  5  8  2  0  0  0
  9 15  2  0  0  0
 10 18  2  0  0  0
M  END
> <rmsd>
0.428353488

$$$$
ZINC92123903


 20 21  0  0  0  0  0  0  0  0999 V2000
    6.3500   -2.9676    2.3664 C   0  0  0  0  0
    5.1392   -3.6347    2.1808 C   0  0  0  0  0
    6.5353   -1.6951    1.8257 C   0  0  0  0  0
    0.7951    3.3559    0.8000 C   0  0  0  0  0
    0.6179    2.0573    1.3345 C   0  0  0  0  0
    4.2989   -1.7570    0.9138 C   0  0  0  0  0
    4.1136   -3.0295    1.4544 C   0  0  0  0  0
    5.5097   -1.0900    1.0993 C   0  0  0  0  0
    1.1432    3.1818   -0.5191 C   0  0  0  0  0
    0.8703    1.1823    0.3036 C   0  0  0  0  0
    3.2269   -1.1244    0.1536 C   0  0  0  0  0
    1.4436    4.1187   -1.5472 C   0  0  0  0  0
    0.8581   -0.3156    0.2018 C   0  0  0  0  0
    1.7733    3.6389   -2.8279 N   0  0  0  0  0
    2.0194   -0.9095    0.8243 N   0  0  0  0  0
    3.3981   -0.8200   -1.0378 O   0  0  0  0  0
    1.4427    5.3639   -1.3534 O   0  0  0  0  0
    1.1912    1.8598   -0.8298 O   0  0  0  0  0
    2.9382   -3.6991    1.2862 O   0  0  0  0  0
    5.7117    0.1542    0.5805 O   0  0  0  0  0
  1  2  1  0  0  0
  3  8  1  0  0  0
  4  5  1  0  0  0
  6  7  1  0  0  0
  6 11  1  0  0  0
  7 19  1  0  0  0
  8 20  1  0  0  0
  9 12  1  0  0  0
  9 18  1  0  0  0
 10 18  1  0  0  0
 11 15  1  0  0  0
 12 14  1  0  0  0
 13 10  1  0  0  0
 13 15  1  0  0  0
  1  3  2  0  0  0
  2  7  2  0  0  0
  4  9  2  0  0  0
  5 10  2  0  0  0
  6  8  2  0  0  0
 11 16  2  0  0  0
 12 17  2  0  0  0
M  END
> <rmsd>
0.273259342

$$$$
ZINC92121989


 20 21  0  0  0  0  0  0  0  0999 V2000
    6.3552   -2.9711    2.3583 C   0  0  0  0  0
    5.1441   -3.6381    2.1746 C   0  0  0  0  0
    6.5388   -1.6976    1.8196 C   0  0  0  0  0
    0.6234    2.0631    1.3370 C   0  0  0  0  0
    4.3001   -1.7582    0.9133 C   0  0  0  0  0
    4.1165   -3.0316    1.4521 C   0  0  0  0  0
    5.5112   -1.0911    1.0971 C   0  0  0  0  0
    0.8120    3.3227    0.7424 C   0  0  0  0  0
    0.8694    1.1817    0.3177 C   0  0  0  0  0
    3.2259   -1.1241    0.1572 C   0  0  0  0  0
    1.6832    4.8743    2.5277 C   0  0  0  0  0
   -0.7532    4.9356    1.8837 C   0  0  0  0  0
    0.8572   -0.3160    0.2131 C   0  0  0  0  0
    0.6789    4.6463    1.3719 C   0  0  0  0  0
    1.1492    3.2297   -0.5470 N   0  0  0  0  0
    2.0202   -0.9108    0.8314 N   0  0  0  0  0
    3.3941   -0.8174   -1.0341 O   0  0  0  0  0
    1.1843    1.8659   -0.8119 O   0  0  0  0  0
    2.9407   -3.7011    1.2856 O   0  0  0  0  0
    5.7117    0.1541    0.5801 O   0  0  0  0  0
  1  2  1  0  0  0
  3  7  1  0  0  0
  4  8  1  0  0  0
  5  6  1  0  0  0
  5 10  1  0  0  0
  6 19  1  0  0  0
  7 20  1  0  0  0
  9 18  1  0  0  0
 10 16  1  0  0  0
 11 14  1  0  0  0
 12 14  1  0  0  0
 13  9  1  0  0  0
 13 16  1  0  0  0
 14  8  1  0  0  0
 15 18  1  0  0  0
  1  3  2  0  0  0
  2  6  2  0  0  0
  4  9  2  0  0  0
  5  7  2  0  0  0
  8 15  2  0  0  0
 10 17  2  0  0  0
M  END
> <rmsd>
0.274507076

$$$$
ZINC64481114


 20 22  0  0  0  0  0  0  0  0999 V2000
    1.4259    3.4162    0.8320 C   0  0  0  0  0
    0.1693    3.9609    0.5679 C   0  0  0  0  0
    1.7777    2.1795    0.2912 C   0  0  0  0  0
   -0.7357    3.2688   -0.2370 C   0  0  0  0  0
    0.8728    1.4874   -0.5136 C   0  0  0  0  0
   -0.3839    2.0320   -0.7777 C   0  0  0  0  0
    3.7065   -1.5248    0.8740 C   0  0  0  0  0
    4.8589   -0.9388    1.2255 C   0  0  0  0  0
    1.2769    0.1442   -1.0888 C   0  0  0  0  0
    3.3174   -2.4629    1.9836 C   0  0  0  0  0
    2.8733   -1.3332   -0.3465 C   0  0  0  0  0
   -1.3696    1.3097   -1.6364 C   0  0  0  0  0
    4.3354   -4.4660    0.8928 C   0  0  0  0  0
    4.4107   -2.2952    2.9829 N   0  0  0  0  0
    1.5462   -0.8313   -0.0324 N   0  0  0  0  0
    2.4555    0.2561   -1.9597 N   0  0  0  0  0
    5.2694   -1.4048    2.4776 N   0  0  0  0  0
    5.6004   -0.0185    0.5610 N   0  0  0  0  0
    3.1362   -3.8718    1.5396 N   0  0  0  0  0
    3.5234   -0.4009   -1.2069 O   0  0  0  0  0
  1  2  1  0  0  0
  3  5  1  0  0  0
  4  6  1  0  0  0
  8 17  1  0  0  0
  8 18  1  0  0  0
  9  5  1  0  0  0
  9 15  1  0  0  0
  9 16  1  0  0  0
 10  7  1  0  0  0
 10 14  1  0  0  0
 10 19  1  0  0  0
 11  7  1  0  0  0
 11 15  1  0  0  0
 11 20  1  0  0  0
 12  6  1  0  0  0
 13 19  1  0  0  0
 16 20  1  0  0  0
  1  3  2  0  0  0
  2  4  2  0  0  0
  5  6  2  0  0  0
  7  8  2  0  0  0
 17 14  2  0  0  0
M  CHG  2  17   1  19   1
M  END
> <rmsd>
0.338609517

$$$$
ZINC37108244


 20 21  0  0  0  0  0  0  0  0999 V2000
   -0.0313    2.8322    0.7485 C   0  0  0  0  0
   -0.4028    1.4881    0.7815 C   0  0  0  0  0
    0.9701    3.2578   -0.1243 C   0  0  0  0  0
    0.2272    0.5696   -0.0581 C   0  0  0  0  0
    1.6000    2.3393   -0.9640 C   0  0  0  0  0
    1.2287    0.9952   -0.9310 C   0  0  0  0  0
    4.4935   -2.3889   -0.8530 C   0  0  0  0  0
    3.4738   -1.8450   -1.8428 C   0  0  0  0  0
    2.8591   -0.9165    0.2017 C   0  0  0  0  0
    3.9787   -1.9195    0.5145 C   0  0  0  0  0
    0.4073   -3.1108    1.7702 C   0  0  0  0  0
    0.8122   -1.5799    3.7199 C   0  0  0  0  0
    4.3737   -4.2105    1.3903 C   0  0  0  0  0
    1.9069    0.0065   -1.8345 C   0  0  0  0  0
    5.0890   -1.3368    1.3833 C   0  0  0  0  0
    2.7906   -2.6839    2.5582 C   0  0  0  0  0
    1.3775   -2.1110    2.4016 C   0  0  0  0  0
    3.0812   -0.5853   -1.2107 N   0  0  0  0  0
    5.6856   -0.2188    0.7287 N   0  0  0  0  0
    3.3900   -3.0842    1.2395 N   0  0  0  0  0
  1  2  1  0  0  0
  3  5  1  0  0  0
  4  6  1  0  0  0
  7  8  1  0  0  0
  7 10  1  0  0  0
  8 18  1  0  0  0
  9 10  1  0  0  0
  9 18  1  0  0  0
 10 15  1  0  0  0
 10 20  1  0  0  0
 11 17  1  0  0  0
 12 17  1  0  0  0
 13 20  1  0  0  0
 14  6  1  0  0  0
 14 18  1  0  0  0
 15 19  1  0  0  0
 16 17  1  0  0  0
 16 20  1  0  0  0
  1  3  2  0  0  0
  2  4  2  0  0  0
  5  6  2  0  0  0
M  CHG  1  20   1
M  END
> <rmsd>
0.367171615

$$$$
ZINC92120469


 19 19  0  0  0  0  0  0  0  0999 V2000
    6.5335   -3.1559    1.9976 C   0  0  0  0  0
    5.2908   -3.7695    1.8402 C   0  0  0  0  0
    6.7149   -1.8337    1.5920 C   0  0  0  0  0
    4.4108   -1.7386    0.8714 C   0  0  0  0  0
    4.2295   -3.0609    1.2770 C   0  0  0  0  0
    5.6536   -1.1250    1.0289 C   0  0  0  0  0
    3.2916   -0.9911    0.2767 C   0  0  0  0  0
    2.0187   -1.4371    3.2376 C   0  0  0  0  0
    1.7445    1.9748    0.4636 C   0  0  0  0  0
    2.7414   -0.3107    2.5806 C   0  0  0  0  0
    1.3217    0.5366    0.7461 C   0  0  0  0  0
    0.5880    2.8790    0.0861 C   0  0  0  0  0
    2.4537   -0.2638    1.1457 N   0  0  0  0  0
    3.1841   -1.0542   -0.9475 O   0  0  0  0  0
    3.0233   -3.6797    1.1333 O   0  0  0  0  0
    5.8525    0.1662    0.6403 O   0  0  0  0  0
    1.0100    4.1358   -0.1682 F   0  0  0  0  0
   -0.0227    2.4196   -1.0293 F   0  0  0  0  0
   -0.3417    2.9395    1.0620 F   0  0  0  0  0
  1  2  1  0  0  0
  3  6  1  0  0  0
  4  5  1  0  0  0
  4  7  1  0  0  0
  5 15  1  0  0  0
  6 16  1  0  0  0
  7 13  1  0  0  0
  8 10  1  0  0  0
  9 11  1  0  0  0
  9 12  1  0  0  0
 10 13  1  0  0  0
 11 13  1  0  0  0
 12 17  1  0  0  0
 12 18  1  0  0  0
 12 19  1  0  0  0
  1  3  2  0  0  0
  2  5  2  0  0  0
  4  6  2  0  0  0
  7 14  2  0  0  0
M  END
> <rmsd>
0.51257354

$$$$
ZINC92123053


 20 21  0  0  0  0  0  0  0  0999 V2000
    6.3827   -3.1767    2.1840 C   0  0  0  0  0
    1.6980    2.3777    4.2411 C   0  0  0  0  0
    5.1170   -3.7466    2.0477 C   0  0  0  0  0
    6.6302   -1.8991    1.6816 C   0  0  0  0  0
    2.1823    2.3667    2.9112 C   0  0  0  0  0
    0.4454    1.8113    4.1961 C   0  0  0  0  0
    4.3461   -1.7616    0.9064 C   0  0  0  0  0
    4.0987   -3.0391    1.4089 C   0  0  0  0  0
    5.6119   -1.1917    1.0428 C   0  0  0  0  0
    1.1912    1.7941    2.1484 C   0  0  0  0  0
    3.2618   -1.0081    0.2253 C   0  0  0  0  0
   -0.1330    2.2203    0.0330 C   0  0  0  0  0
    0.9857   -0.0491    0.4607 C   0  0  0  0  0
    1.0671    1.4837    0.6530 C   0  0  0  0  0
    2.1477   -0.7575    0.9947 N   0  0  0  0  0
    3.4054   -0.6804   -0.9495 O   0  0  0  0  0
    0.1290    1.4527    2.9242 O   0  0  0  0  0
    2.8689   -3.6147    1.2874 O   0  0  0  0  0
    5.8752    0.0556    0.5600 O   0  0  0  0  0
    2.2372    1.9584   -0.0273 O   0  0  0  0  0
  1  3  1  0  0  0
  2  5  1  0  0  0
  4  9  1  0  0  0
  6 17  1  0  0  0
  7  8  1  0  0  0
  7 11  1  0  0  0
  8 18  1  0  0  0
  9 19  1  0  0  0
 10 17  1  0  0  0
 11 15  1  0  0  0
 12 14  1  0  0  0
 13 14  1  0  0  0
 13 15  1  0  0  0
 14 10  1  0  0  0
 14 20  1  0  0  0
  1  4  2  0  0  0
  2  6  2  0  0  0
  3  8  2  0  0  0
  5 10  2  0  0  0
  7  9  2  0  0  0
 11 16  2  0  0  0
M  END
> <rmsd>
0.384020627

$$$$
ZINC92123053


 20 21  0  0  0  0  0  0  0  0999 V2000
    6.3831   -3.1764    2.1830 C   0  0  0  0  0
    1.0412    2.1023    4.3524 C   0  0  0  0  0
    5.1174   -3.7464    2.0467 C   0  0  0  0  0
    6.6305   -1.8988    1.6807 C   0  0  0  0  0
    0.3526    1.6026    3.2214 C   0  0  0  0  0
    2.2517    2.5634    3.8898 C   0  0  0  0  0
    4.3463   -1.7613    0.9056 C   0  0  0  0  0
    4.0990   -3.0388    1.4080 C   0  0  0  0  0
    5.6121   -1.1913    1.0420 C   0  0  0  0  0
    1.1914    1.7941    2.1481 C   0  0  0  0  0
    3.2620   -1.0078    0.2247 C   0  0  0  0  0
   -0.1331    2.2204    0.0328 C   0  0  0  0  0
    0.9858   -0.0489    0.4602 C   0  0  0  0  0
    1.0671    1.4838    0.6527 C   0  0  0  0  0
    2.1479   -0.7573    0.9941 N   0  0  0  0  0
    3.4055   -0.6800   -0.9502 O   0  0  0  0  0
    2.3510    2.3795    2.5470 O   0  0  0  0  0
    2.8692   -3.6145    1.2866 O   0  0  0  0  0
    5.8754    0.0560    0.5593 O   0  0  0  0  0
    2.2372    1.9587   -0.0276 O   0  0  0  0  0
  1  3  1  0  0  0
  2  5  1  0  0  0
  4  9  1  0  0  0
  6 17  1  0  0  0
  7  8  1  0  0  0
  7 11  1  0  0  0
  8 18  1  0  0  0
  9 19  1  0  0  0
 10 17  1  0  0  0
 11 15  1  0  0  0
 12 14  1  0  0  0
 13 14  1  0  0  0
 13 15  1  0  0  0
 14 10  1  0  0  0
 14 20  1  0  0  0
  1  4  2  0  0  0
  2  6  2  0  0  0
  3  8  2  0  0  0
  5 10  2  0  0  0
  7  9  2  0  0  0
 11 16  2  0  0  0
M  END
> <rmsd>
0.384162098

$$$$
ZINC67589040


 20 21  0  0  0  0  0  0  0  0999 V2000
    6.3271   -2.9512    2.3999 C   0  0  0  0  0
    5.1172   -3.6182    2.2076 C   0  0  0  0  0
    6.5199   -1.6837    1.8504 C   0  0  0  0  0
    0.5826    1.9838    1.3683 C   0  0  0  0  0
    4.2928   -1.7503    0.9160 C   0  0  0  0  0
    4.1000   -3.0177    1.4656 C   0  0  0  0  0
    5.5028   -1.0833    1.1083 C   0  0  0  0  0
    0.8759    1.1891    0.2439 C   0  0  0  0  0
    0.7394    3.2749    0.9267 C   0  0  0  0  0
    3.2301   -1.1223    0.1390 C   0  0  0  0  0
    1.7445    6.3877    2.5428 C   0  0  0  0  0
    0.8624   -0.3095    0.1547 C   0  0  0  0  0
    0.5842    4.5719    1.6051 C   0  0  0  0  0
    1.1947    1.9147   -0.8313 N   0  0  0  0  0
    1.1025    3.1788   -0.3845 N   0  0  0  0  0
    2.0159   -0.8998    0.7948 N   0  0  0  0  0
    3.4147   -0.8284   -1.0531 O   0  0  0  0  0
    2.9259   -3.6876    1.2896 O   0  0  0  0  0
    5.7124    0.1557    0.5805 O   0  0  0  0  0
    1.8665    5.1354    1.8880 O   0  0  0  0  0
  1  2  1  0  0  0
  3  7  1  0  0  0
  4  8  1  0  0  0
  5  6  1  0  0  0
  5 10  1  0  0  0
  6 18  1  0  0  0
  7 19  1  0  0  0
  9 15  1  0  0  0
 10 16  1  0  0  0
 11 20  1  0  0  0
 12  8  1  0  0  0
 12 16  1  0  0  0
 13  9  1  0  0  0
 13 20  1  0  0  0
 15 14  1  0  0  0
  1  3  2  0  0  0
  2  6  2  0  0  0
  4  9  2  0  0  0
  5  7  2  0  0  0
  8 14  2  0  0  0
 10 17  2  0  0  0
M  END
> <rmsd>
0.26748085

$$$$
ZINC92119829


 19 20  0  0  0  0  0  0  0  0999 V2000
    6.4906   -3.0631    2.1148 C   0  0  0  0  0
    5.2731   -3.7308    1.9828 C   0  0  0  0  0
    6.6260   -1.7587    1.6395 C   0  0  0  0  0
    1.5310    3.0132   -1.0885 C   0  0  0  0  0
    1.3798    1.5966   -1.1053 C   0  0  0  0  0
    4.3262   -1.7897    0.8997 C   0  0  0  0  0
    4.1909   -3.0941    1.3752 C   0  0  0  0  0
    5.5437   -1.1221    1.0319 C   0  0  0  0  0
    1.3313    3.5401    0.1684 C   0  0  0  0  0
    1.0705    1.0945    0.1397 C   0  0  0  0  0
    3.1949   -1.1241    0.2638 C   0  0  0  0  0
    1.3986    4.9546    0.5951 C   0  0  0  0  0
    0.2414   -1.1810   -0.5911 C   0  0  0  0  0
    0.8321   -0.3449    0.5424 C   0  0  0  0  0
    2.0416   -0.9626    1.0369 N   0  0  0  0  0
    3.2718   -0.7471   -0.9167 O   0  0  0  0  0
    3.0100   -3.7648    1.2574 O   0  0  0  0  0
    5.6976    0.1530    0.5751 O   0  0  0  0  0
    0.9631    2.3288    1.3217 S   0  0  0  0  0
  1  2  1  0  0  0
  3  8  1  0  0  0
  4  5  1  0  0  0
  6  7  1  0  0  0
  6 11  1  0  0  0
  7 17  1  0  0  0
  8 18  1  0  0  0
  9 19  1  0  0  0
 10 19  1  0  0  0
 11 15  1  0  0  0
 12  9  1  0  0  0
 13 14  1  0  0  0
 14 10  1  0  0  0
 14 15  1  0  0  0
  1  3  2  0  0  0
  2  7  2  0  0  0
  4  9  2  0  0  0
  5 10  2  0  0  0
  6  8  2  0  0  0
 11 16  2  0  0  0
M  END
> <rmsd>
0.419321984

$$$$
ZINC92119831


 19 20  0  0  0  0  0  0  0  0999 V2000
    6.3326   -2.9454    2.4112 C   0  0  0  0  0
    5.1267   -3.6185    2.2157 C   0  0  0  0  0
    6.5216   -1.6783    1.8595 C   0  0  0  0  0
    1.4690    3.3617    0.7659 C   0  0  0  0  0
    1.7830    1.9788    0.9044 C   0  0  0  0  0
    4.2987   -1.7575    0.9163 C   0  0  0  0  0
    4.1097   -3.0246    1.4683 C   0  0  0  0  0
    5.5047   -1.0844    1.1120 C   0  0  0  0  0
    0.3424    3.5623   -0.0011 C   0  0  0  0  0
    0.8842    1.1750    0.2381 C   0  0  0  0  0
    3.2357   -1.1366    0.1342 C   0  0  0  0  0
   -0.3022    4.8403   -0.3735 C   0  0  0  0  0
   -0.4246   -0.9397    0.6938 C   0  0  0  0  0
    0.8640   -0.3352    0.1396 C   0  0  0  0  0
    2.0181   -0.9184    0.7852 N   0  0  0  0  0
    3.4230   -0.8446   -1.0581 O   0  0  0  0  0
    2.9389   -3.6998    1.2906 O   0  0  0  0  0
    5.7101    0.1546    0.5824 O   0  0  0  0  0
   -0.3317    2.0871   -0.5504 S   0  0  0  0  0
  1  2  1  0  0  0
  3  8  1  0  0  0
  4  5  1  0  0  0
  6  7  1  0  0  0
  6 11  1  0  0  0
  7 17  1  0  0  0
  8 18  1  0  0  0
  9 19  1  0  0  0
 10 19  1  0  0  0
 11 15  1  0  0  0
 12  9  1  0  0  0
 13 14  1  0  0  0
 14 10  1  0  0  0
 14 15  1  0  0  0
  1  3  2  0  0  0
  2  7  2  0  0  0
  4  9  2  0  0  0
  5 10  2  0  0  0
  6  8  2  0  0  0
 11 16  2  0  0  0
M  END
> <rmsd>
0.262366831

$$$$
ZINC92124485


 19 20  0  0  0  0  0  0  0  0999 V2000
    6.3448   -2.9512    2.3919 C   0  0  0  0  0
    5.1390   -3.6255    2.2004 C   0  0  0  0  0
    6.5282   -1.6811    1.8450 C   0  0  0  0  0
    0.6912    3.3440    1.0316 C   0  0  0  0  0
    1.0576    3.5503   -0.2803 C   0  0  0  0  0
    4.2998   -1.7598    0.9151 C   0  0  0  0  0
    0.5779    1.9585    1.3440 C   0  0  0  0  0
    4.1164   -3.0298    1.4620 C   0  0  0  0  0
    5.5056   -1.0855    1.1066 C   0  0  0  0  0
    0.8617    1.1585    0.2589 C   0  0  0  0  0
    3.2309   -1.1370    0.1424 C   0  0  0  0  0
    1.3490    1.5201    3.6892 C   0  0  0  0  0
    0.1980    1.4497    2.6837 C   0  0  0  0  0
    0.8578   -0.3400    0.1661 C   0  0  0  0  0
    2.0169   -0.9242    0.8018 N   0  0  0  0  0
    3.4105   -0.8390   -1.0495 O   0  0  0  0  0
    2.9458   -3.7063    1.2882 O   0  0  0  0  0
    5.7057    0.1566    0.5818 O   0  0  0  0  0
    1.2631    2.0774   -1.1291 S   0  0  0  0  0
  1  2  1  0  0  0
  3  9  1  0  0  0
  4  7  1  0  0  0
  5 19  1  0  0  0
  6  8  1  0  0  0
  6 11  1  0  0  0
  8 17  1  0  0  0
  9 18  1  0  0  0
 10 19  1  0  0  0
 11 15  1  0  0  0
 12 13  1  0  0  0
 13  7  1  0  0  0
 14 10  1  0  0  0
 14 15  1  0  0  0
  1  3  2  0  0  0
  2  8  2  0  0  0
  4  5  2  0  0  0
  6  9  2  0  0  0
  7 10  2  0  0  0
 11 16  2  0  0  0
M  END
> <rmsd>
0.274074346

$$$$
ZINC92123706


 19 20  0  0  0  0  0  0  0  0999 V2000
    6.3947   -3.1786    2.1653 C   0  0  0  0  0
    5.1303   -3.7526    2.0325 C   0  0  0  0  0
    6.6350   -1.8977    1.6679 C   0  0  0  0  0
    0.0876    1.4985    3.0988 C   0  0  0  0  0
    0.3939    1.9073    4.3781 C   0  0  0  0  0
    2.1983    2.4204    2.7872 C   0  0  0  0  0
    4.3466   -1.7648    0.9047 C   0  0  0  0  0
    1.1328    1.7955    2.1772 C   0  0  0  0  0
    4.1063   -3.0457    1.4022 C   0  0  0  0  0
    5.6109   -1.1909    1.0376 C   0  0  0  0  0
    3.2561   -1.0121    0.2327 C   0  0  0  0  0
   -0.0629    2.2265    0.0072 C   0  0  0  0  0
    0.9777   -0.0626    0.4840 C   0  0  0  0  0
    1.0763    1.4618    0.6938 C   0  0  0  0  0
    2.1435   -0.7685    1.0081 N   0  0  0  0  0
    3.3927   -0.6783   -0.9413 O   0  0  0  0  0
    2.8781   -3.6253    1.2841 O   0  0  0  0  0
    5.8673    0.0596    0.5596 O   0  0  0  0  0
    1.9363    2.6462    4.4643 S   0  0  0  0  0
  1  2  1  0  0  0
  3 10  1  0  0  0
  4  8  1  0  0  0
  5 19  1  0  0  0
  6 19  1  0  0  0
  7  9  1  0  0  0
  7 11  1  0  0  0
  9 17  1  0  0  0
 10 18  1  0  0  0
 11 15  1  0  0  0
 12 14  1  0  0  0
 13 14  1  0  0  0
 13 15  1  0  0  0
 14  8  1  0  0  0
  1  3  2  0  0  0
  2  9  2  0  0  0
  4  5  2  0  0  0
  6  8  2  0  0  0
  7 10  2  0  0  0
 11 16  2  0  0  0
M  END
> <rmsd>
0.361096472

$$$$
ZINC92123706


 19 20  0  0  0  0  0  0  0  0999 V2000
    6.3952   -3.1783    2.1653 C   0  0  0  0  0
    5.1308   -3.7523    2.0325 C   0  0  0  0  0
    6.6355   -1.8974    1.6679 C   0  0  0  0  0
    2.2375    2.4414    2.8048 C   0  0  0  0  0
    2.0313    2.6239    4.1546 C   0  0  0  0  0
    0.1250    1.5093    3.0712 C   0  0  0  0  0
    4.3470   -1.7645    0.9046 C   0  0  0  0  0
    1.1333    1.7958    2.1771 C   0  0  0  0  0
    4.1068   -3.0454    1.4021 C   0  0  0  0  0
    5.6114   -1.1906    1.0375 C   0  0  0  0  0
    3.2566   -1.0118    0.2327 C   0  0  0  0  0
   -0.0624    2.2268    0.0072 C   0  0  0  0  0
    0.9781   -0.0623    0.4840 C   0  0  0  0  0
    1.0768    1.4621    0.6938 C   0  0  0  0  0
    2.1439   -0.7682    1.0080 N   0  0  0  0  0
    3.3932   -0.6780   -0.9413 O   0  0  0  0  0
    2.8785   -3.6250    1.2841 O   0  0  0  0  0
    5.8677    0.0599    0.5595 O   0  0  0  0  0
    0.5114    2.0182    4.6599 S   0  0  0  0  0
  1  2  1  0  0  0
  3 10  1  0  0  0
  4  8  1  0  0  0
  5 19  1  0  0  0
  6 19  1  0  0  0
  7  9  1  0  0  0
  7 11  1  0  0  0
  9 17  1  0  0  0
 10 18  1  0  0  0
 11 15  1  0  0  0
 12 14  1  0  0  0
 13 14  1  0  0  0
 13 15  1  0  0  0
 14  8  1  0  0  0
  1  3  2  0  0  0
  2  9  2  0  0  0
  4  5  2  0  0  0
  6  8  2  0  0  0
  7 10  2  0  0  0
 11 16  2  0  0  0
M  END
> <rmsd>
0.361096472

$$$$
ZINC92122611


 19 20  0  0  0  0  0  0  0  0999 V2000
    6.3955   -3.1785    2.1656 C   0  0  0  0  0
    0.6013    2.0157    4.4292 C   0  0  0  0  0
    5.1311   -3.7525    2.0328 C   0  0  0  0  0
    6.6358   -1.8977    1.6682 C   0  0  0  0  0
    0.1853    1.5538    3.1471 C   0  0  0  0  0
    1.8516    2.5927    4.3907 C   0  0  0  0  0
    4.3473   -1.7648    0.9049 C   0  0  0  0  0
    4.1071   -3.0457    1.4024 C   0  0  0  0  0
    5.6117   -1.1908    1.0378 C   0  0  0  0  0
    1.1336    1.7956    2.1774 C   0  0  0  0  0
    3.2569   -1.0121    0.2330 C   0  0  0  0  0
   -0.0621    2.2266    0.0074 C   0  0  0  0  0
    0.9784   -0.0626    0.4843 C   0  0  0  0  0
    1.0771    1.4618    0.6940 C   0  0  0  0  0
    2.1442   -0.7684    1.0083 N   0  0  0  0  0
    3.3935   -0.6782   -0.9411 O   0  0  0  0  0
    2.8788   -3.6253    1.2844 O   0  0  0  0  0
    5.8680    0.0596    0.5598 O   0  0  0  0  0
    2.5187    2.5760    2.8136 S   0  0  0  0  0
  1  3  1  0  0  0
  2  5  1  0  0  0
  4  9  1  0  0  0
  6 19  1  0  0  0
  7  8  1  0  0  0
  7 11  1  0  0  0
  8 17  1  0  0  0
  9 18  1  0  0  0
 10 19  1  0  0  0
 11 15  1  0  0  0
 12 14  1  0  0  0
 13 14  1  0  0  0
 13 15  1  0  0  0
 14 10  1  0  0  0
  1  4  2  0  0  0
  2  6  2  0  0  0
  3  8  2  0  0  0
  5 10  2  0  0  0
  7  9  2  0  0  0
 11 16  2  0  0  0
M  END
> <rmsd>
0.361096501

$$$$
ZINC92123586


 20 21  0  0  0  0  0  0  0  0999 V2000
    6.3812   -3.1277    2.1279 C   0  0  0  0  0
    5.1261   -3.7235    2.0032 C   0  0  0  0  0
    6.5936   -1.8396    1.6367 C   0  0  0  0  0
    4.2961   -1.7431    0.8959 C   0  0  0  0  0
    4.0836   -3.0311    1.3872 C   0  0  0  0  0
    5.5511   -1.1472    1.0207 C   0  0  0  0  0
    3.1998   -1.0150    0.2474 C   0  0  0  0  0
    1.5811    0.7527    2.8752 C   0  0  0  0  0
    0.1551    0.9426    2.3540 C   0  0  0  0  0
    2.1494   -0.5940    2.4433 C   0  0  0  0  0
    0.6849   -0.6430    0.4522 C   0  0  0  0  0
    0.0363    0.7091    0.8287 C   0  0  0  0  0
    0.7130    1.8542    0.0503 C   0  0  0  0  0
   -3.0878    0.4355   -1.4397 C   0  0  0  0  0
   -1.4525    0.6784    0.4407 C   0  0  0  0  0
   -1.6169    0.4889   -1.0591 C   0  0  0  0  0
    2.0468   -0.7625    0.9949 N   0  0  0  0  0
    3.3873   -0.6808   -0.9213 O   0  0  0  0  0
    2.8649   -3.6320    1.2768 O   0  0  0  0  0
    5.7803    0.1108    0.5485 O   0  0  0  0  0
  1  2  1  0  0  0
  3  6  1  0  0  0
  4  5  1  0  0  0
  4  7  1  0  0  0
  5 19  1  0  0  0
  6 20  1  0  0  0
  7 17  1  0  0  0
  8  9  1  0  0  0
  8 10  1  0  0  0
  9 12  1  0  0  0
 10 17  1  0  0  0
 11 12  1  0  0  0
 11 17  1  0  0  0
 12 13  1  0  0  0
 12 15  1  0  0  0
 14 16  1  0  0  0
 15 16  1  0  0  0
  1  3  2  0  0  0
  2  5  2  0  0  0
  4  6  2  0  0  0
  7 18  2  0  0  0
M  END
> <rmsd>
0.299480796

$$$$
ZINC92123374


 19 20  0  0  0  0  0  0  0  0999 V2000
    6.3365   -2.9508    2.3973 C   0  0  0  0  0
    5.1289   -3.6219    2.2048 C   0  0  0  0  0
    6.5244   -1.6820    1.8489 C   0  0  0  0  0
    0.6891    3.2018    1.0607 C   0  0  0  0  0
    4.2971   -1.7555    0.9157 C   0  0  0  0  0
    4.1092   -3.0243    1.4640 C   0  0  0  0  0
    5.5047   -1.0845    1.1080 C   0  0  0  0  0
    1.0543    3.5252   -0.2294 C   0  0  0  0  0
    0.8685    1.1719    0.2502 C   0  0  0  0  0
    3.2312   -1.1308    0.1404 C   0  0  0  0  0
   -0.0613    5.5522   -1.1953 C   0  0  0  0  0
    1.2557    4.8479   -0.8515 C   0  0  0  0  0
    0.8605   -0.3268    0.1595 C   0  0  0  0  0
    0.5817    1.8529    1.3373 N   0  0  0  0  0
    2.0169   -0.9135    0.7977 N   0  0  0  0  0
    3.4135   -0.8349   -1.0515 O   0  0  0  0  0
    2.9369   -3.6976    1.2893 O   0  0  0  0  0
    5.7092    0.1562    0.5819 O   0  0  0  0  0
    1.2766    2.0897   -1.1412 S   0  0  0  0  0
  1  2  1  0  0  0
  3  7  1  0  0  0
  4 14  1  0  0  0
  5  6  1  0  0  0
  5 10  1  0  0  0
  6 17  1  0  0  0
  7 18  1  0  0  0
  8 19  1  0  0  0
  9 19  1  0  0  0
 10 15  1  0  0  0
 11 12  1  0  0  0
 12  8  1  0  0  0
 13  9  1  0  0  0
 13 15  1  0  0  0
  1  3  2  0  0  0
  2  6  2  0  0  0
  4  8  2  0  0  0
  5  7  2  0  0  0
  9 14  2  0  0  0
 10 16  2  0  0  0
M  END
> <rmsd>
0.269811481

$$$$
ZINC92124108


 19 20  0  0  0  0  0  0  0  0999 V2000
    6.4854   -3.0668    2.1141 C   0  0  0  0  0
    5.2656   -3.7305    1.9827 C   0  0  0  0  0
    6.6246   -1.7629    1.6386 C   0  0  0  0  0
    1.5239    2.8723   -1.0826 C   0  0  0  0  0
    4.3244   -1.7865    0.9001 C   0  0  0  0  0
    4.1852   -3.0905    1.3756 C   0  0  0  0  0
    5.5441   -1.1228    1.0315 C   0  0  0  0  0
    1.3464    3.5019    0.1316 C   0  0  0  0  0
    1.0776    1.1081    0.1416 C   0  0  0  0  0
    3.1949   -1.1173    0.2647 C   0  0  0  0  0
    1.4365    4.9339    0.4760 C   0  0  0  0  0
    0.2409   -1.1647   -0.5886 C   0  0  0  0  0
    0.8348   -0.3305    0.5445 C   0  0  0  0  0
    1.3706    1.4995   -1.0787 N   0  0  0  0  0
    2.0425   -0.9520    1.0384 N   0  0  0  0  0
    3.2724   -0.7406   -0.9160 O   0  0  0  0  0
    3.0020   -3.7574    1.2585 O   0  0  0  0  0
    5.7019    0.1518    0.5746 O   0  0  0  0  0
    0.9700    2.3379    1.3337 S   0  0  0  0  0
  1  2  1  0  0  0
  3  7  1  0  0  0
  4 14  1  0  0  0
  5  6  1  0  0  0
  5 10  1  0  0  0
  6 17  1  0  0  0
  7 18  1  0  0  0
  8 19  1  0  0  0
  9 19  1  0  0  0
 10 15  1  0  0  0
 11  8  1  0  0  0
 12 13  1  0  0  0
 13  9  1  0  0  0
 13 15  1  0  0  0
  1  3  2  0  0  0
  2  6  2  0  0  0
  4  8  2  0  0  0
  5  7  2  0  0  0
  9 14  2  0  0  0
 10 16  2  0  0  0
M  END
> <rmsd>
0.418635964

$$$$
ZINC92120912


 19 20  0  0  0  0  0  0  0  0999 V2000
    6.3279   -2.9460    2.4116 C   0  0  0  0  0
    5.1205   -3.6165    2.2161 C   0  0  0  0  0
    6.5197   -1.6795    1.8594 C   0  0  0  0  0
    0.3944    3.5335    0.0228 C   0  0  0  0  0
    4.2967   -1.7541    0.9162 C   0  0  0  0  0
    4.1049   -3.0206    1.4684 C   0  0  0  0  0
    5.5041   -1.0836    1.1116 C   0  0  0  0  0
    1.5073    3.2199    0.7746 C   0  0  0  0  0
    0.8887    1.1857    0.2368 C   0  0  0  0  0
    3.2351   -1.1311    0.1337 C   0  0  0  0  0
    2.3977    4.1897    1.4426 C   0  0  0  0  0
   -0.4247   -0.9259    0.6931 C   0  0  0  0  0
    0.8652   -0.3245    0.1388 C   0  0  0  0  0
    1.7921    1.8740    0.8988 N   0  0  0  0  0
    2.0179   -0.9101    0.7846 N   0  0  0  0  0
    3.4232   -0.8399   -1.0585 O   0  0  0  0  0
    2.9326   -3.6933    1.2908 O   0  0  0  0  0
    5.7124    0.1549    0.5819 O   0  0  0  0  0
   -0.3317    2.0927   -0.5588 S   0  0  0  0  0
  1  2  1  0  0  0
  3  7  1  0  0  0
  4 19  1  0  0  0
  5  6  1  0  0  0
  5 10  1  0  0  0
  6 17  1  0  0  0
  7 18  1  0  0  0
  8 14  1  0  0  0
  9 19  1  0  0  0
 10 15  1  0  0  0
 11  8  1  0  0  0
 12 13  1  0  0  0
 13  9  1  0  0  0
 13 15  1  0  0  0
  1  3  2  0  0  0
  2  6  2  0  0  0
  4  8  2  0  0  0
  5  7  2  0  0  0
  9 14  2  0  0  0
 10 16  2  0  0  0
M  END
> <rmsd>
0.260911018

$$$$
ZINC92124109


 19 20  0  0  0  0  0  0  0  0999 V2000
    6.3273   -2.9465    2.4115 C   0  0  0  0  0
    5.1199   -3.6169    2.2160 C   0  0  0  0  0
    6.5191   -1.6799    1.8593 C   0  0  0  0  0
    1.5067    3.2198    0.7746 C   0  0  0  0  0
    4.2960   -1.7544    0.9163 C   0  0  0  0  0
    4.1042   -3.0210    1.4684 C   0  0  0  0  0
    5.5035   -1.0840    1.1117 C   0  0  0  0  0
    0.3940    3.5333    0.0226 C   0  0  0  0  0
    0.8880    1.1855    0.2373 C   0  0  0  0  0
    3.2344   -1.1314    0.1339 C   0  0  0  0  0
   -0.1849    4.8504   -0.3055 C   0  0  0  0  0
   -0.4254   -0.9262    0.6936 C   0  0  0  0  0
    0.8644   -0.3247    0.1393 C   0  0  0  0  0
    1.7913    1.8739    0.8993 N   0  0  0  0  0
    2.0173   -0.9104    0.7849 N   0  0  0  0  0
    3.4224   -0.8401   -1.0583 O   0  0  0  0  0
    2.9320   -3.6937    1.2909 O   0  0  0  0  0
    5.7117    0.1546    0.5819 O   0  0  0  0  0
   -0.3321    2.0924   -0.5587 S   0  0  0  0  0
  1  2  1  0  0  0
  3  7  1  0  0  0
  4 14  1  0  0  0
  5  6  1  0  0  0
  5 10  1  0  0  0
  6 17  1  0  0  0
  7 18  1  0  0  0
  8 19  1  0  0  0
  9 19  1  0  0  0
 10 15  1  0  0  0
 11  8  1  0  0  0
 12 13  1  0  0  0
 13  9  1  0  0  0
 13 15  1  0  0  0
  1  3  2  0  0  0
  2  6  2  0  0  0
  4  8  2  0  0  0
  5  7  2  0  0  0
  9 14  2  0  0  0
 10 16  2  0  0  0
M  END
> <rmsd>
0.260957569

$$$$
ZINC92123608


 19 20  0  0  0  0  0  0  0  0999 V2000
    6.3367   -2.9509    2.3966 C   0  0  0  0  0
    5.1291   -3.6219    2.2042 C   0  0  0  0  0
    6.5246   -1.6821    1.8483 C   0  0  0  0  0
    4.2973   -1.7554    0.9153 C   0  0  0  0  0
    4.1094   -3.0242    1.4635 C   0  0  0  0  0
    5.5049   -1.0844    1.1077 C   0  0  0  0  0
    0.6870    3.2022    1.0604 C   0  0  0  0  0
    1.0502    3.5257   -0.2301 C   0  0  0  0  0
    0.8688    1.1722    0.2504 C   0  0  0  0  0
    3.2314   -1.1305    0.1402 C   0  0  0  0  0
    0.4025    4.1595    2.1490 C   0  0  0  0  0
    1.2491    4.8466   -0.8598 C   0  0  0  0  0
    0.8607   -0.3264    0.1595 C   0  0  0  0  0
    0.5821    1.8532    1.3376 N   0  0  0  0  0
    2.0171   -0.9133    0.7976 N   0  0  0  0  0
    3.4136   -0.8345   -1.0518 O   0  0  0  0  0
    2.9370   -3.6975    1.2888 O   0  0  0  0  0
    5.7094    0.1564    0.5817 O   0  0  0  0  0
    1.2739    2.0903   -1.1417 S   0  0  0  0  0
  1  2  1  0  0  0
  3  6  1  0  0  0
  4  5  1  0  0  0
  4 10  1  0  0  0
  5 17  1  0  0  0
  6 18  1  0  0  0
  7 14  1  0  0  0
  8 19  1  0  0  0
  9 19  1  0  0  0
 10 15  1  0  0  0
 11  7  1  0  0  0
 12  8  1  0  0  0
 13  9  1  0  0  0
 13 15  1  0  0  0
  1  3  2  0  0  0
  2  5  2  0  0  0
  4  6  2  0  0  0
  7  8  2  0  0  0
  9 14  2  0  0  0
 10 16  2  0  0  0
M  END
> <rmsd>
0.269473493

$$$$
ZINC92126419


 19 20  0  0  0  0  0  0  0  0999 V2000
    6.3396   -2.9556    2.3884 C   0  0  0  0  0
    5.1309   -3.6251    2.1980 C   0  0  0  0  0
    6.5273   -1.6858    1.8421 C   0  0  0  0  0
    4.2973   -1.7552    0.9151 C   0  0  0  0  0
    4.1097   -3.0250    1.4613 C   0  0  0  0  0
    5.5061   -1.0858    1.1054 C   0  0  0  0  0
    0.8697    1.1769    0.2654 C   0  0  0  0  0
    0.5786    1.9213    1.3893 C   0  0  0  0  0
    1.1445    3.1795   -0.5854 C   0  0  0  0  0
    3.2298   -1.1278    0.1441 C   0  0  0  0  0
    0.1964    1.4844    2.7471 C   0  0  0  0  0
    1.4293    4.2614   -1.5531 C   0  0  0  0  0
    0.8599   -0.3216    0.1716 C   0  0  0  0  0
    1.1939    1.8966   -0.8681 N   0  0  0  0  0
    2.0175   -0.9108    0.8053 N   0  0  0  0  0
    3.4090   -0.8297   -1.0477 O   0  0  0  0  0
    2.9362   -3.6968    1.2885 O   0  0  0  0  0
    5.7103    0.1559    0.5813 O   0  0  0  0  0
    0.7153    3.5914    1.0243 S   0  0  0  0  0
  1  2  1  0  0  0
  3  6  1  0  0  0
  4  5  1  0  0  0
  4 10  1  0  0  0
  5 17  1  0  0  0
  6 18  1  0  0  0
  7 14  1  0  0  0
  8 19  1  0  0  0
  9 19  1  0  0  0
 10 15  1  0  0  0
 11  8  1  0  0  0
 12  9  1  0  0  0
 13  7  1  0  0  0
 13 15  1  0  0  0
  1  3  2  0  0  0
  2  5  2  0  0  0
  4  6  2  0  0  0
  7  8  2  0  0  0
  9 14  2  0  0  0
 10 16  2  0  0  0
M  END
> <rmsd>
0.269723326

$$$$
ZINC92123077


 19 20  0  0  0  0  0  0  0  0999 V2000
    6.3392   -2.9463    2.4024 C   0  0  0  0  0
    5.1341   -3.6214    2.2084 C   0  0  0  0  0
    6.5241   -1.6775    1.8530 C   0  0  0  0  0
    4.2988   -1.7590    0.9159 C   0  0  0  0  0
    4.1139   -3.0279    1.4651 C   0  0  0  0  0
    5.5039   -1.0840    1.1097 C   0  0  0  0  0
    0.5793    1.9839    1.3078 C   0  0  0  0  0
    0.8621    1.1568    0.2411 C   0  0  0  0  0
    1.0317    3.5207   -0.1902 C   0  0  0  0  0
    3.2324   -1.1384    0.1380 C   0  0  0  0  0
    0.1924    1.5495    2.6657 C   0  0  0  0  0
    1.2378    4.8435   -0.8192 C   0  0  0  0  0
    0.8590   -0.3420    0.1519 C   0  0  0  0  0
    0.6765    3.3398    1.0626 N   0  0  0  0  0
    2.0161   -0.9244    0.7929 N   0  0  0  0  0
    3.4159   -0.8432   -1.0539 O   0  0  0  0  0
    2.9440   -3.7051    1.2889 O   0  0  0  0  0
    5.7054    0.1569    0.5828 O   0  0  0  0  0
    1.2655    2.1042   -1.1304 S   0  0  0  0  0
  1  2  1  0  0  0
  3  6  1  0  0  0
  4  5  1  0  0  0
  4 10  1  0  0  0
  5 17  1  0  0  0
  6 18  1  0  0  0
  7 14  1  0  0  0
  8 19  1  0  0  0
  9 19  1  0  0  0
 10 15  1  0  0  0
 11  7  1  0  0  0
 12  9  1  0  0  0
 13  8  1  0  0  0
 13 15  1  0  0  0
  1  3  2  0  0  0
  2  5  2  0  0  0
  4  6  2  0  0  0
  7  8  2  0  0  0
  9 14  2  0  0  0
 10 16  2  0  0  0
M  END
> <rmsd>
0.27344349

$$$$
ZINC92121419


 19 20  0  0  0  0  0  0  0  0999 V2000
    6.3390   -2.9550    2.3902 C   0  0  0  0  0
    5.1304   -3.6247    2.1993 C   0  0  0  0  0
    6.5268   -1.6854    1.8435 C   0  0  0  0  0
    0.5769    1.9147    1.3889 C   0  0  0  0  0
    4.2974   -1.7555    0.9150 C   0  0  0  0  0
    4.1096   -3.0250    1.4617 C   0  0  0  0  0
    5.5060   -1.0858    1.1059 C   0  0  0  0  0
    0.8699    1.1759    0.2618 C   0  0  0  0  0
    1.1481    3.1829   -0.5779 C   0  0  0  0  0
    3.2304   -1.1285    0.1431 C   0  0  0  0  0
    2.9372    4.4580   -1.7861 C   0  0  0  0  0
    0.8604   -0.3225    0.1686 C   0  0  0  0  0
    1.4379    4.2693   -1.5387 C   0  0  0  0  0
    1.1973    1.9013   -0.8671 N   0  0  0  0  0
    2.0177   -0.9114    0.8034 N   0  0  0  0  0
    3.4104   -0.8309   -1.0488 O   0  0  0  0  0
    2.9364   -3.6970    1.2884 O   0  0  0  0  0
    5.7104    0.1556    0.5814 O   0  0  0  0  0
    0.7156    3.5866    1.0330 S   0  0  0  0  0
  1  2  1  0  0  0
  3  7  1  0  0  0
  4 19  1  0  0  0
  5  6  1  0  0  0
  5 10  1  0  0  0
  6 17  1  0  0  0
  7 18  1  0  0  0
  8 14  1  0  0  0
  9 19  1  0  0  0
 10 15  1  0  0  0
 11 13  1  0  0  0
 12  8  1  0  0  0
 12 15  1  0  0  0
 13  9  1  0  0  0
  1  3  2  0  0  0
  2  6  2  0  0  0
  4  8  2  0  0  0
  5  7  2  0  0  0
  9 14  2  0  0  0
 10 16  2  0  0  0
M  END
> <rmsd>
0.269901425

$$$$
ZINC83251327


 19 20  0  0  0  0  0  0  0  0999 V2000
   -0.8159   -0.0707    1.7872 C   0  0  0  0  0
   -0.1245    0.8203    0.9062 C   0  0  0  0  0
   -0.6967    1.9751    0.2929 C   0  0  0  0  0
    0.2235    2.6302   -0.5032 C   0  0  0  0  0
    1.1980    0.6480    0.5588 C   0  0  0  0  0
    3.9864   -1.8510    0.8952 C   0  0  0  0  0
    3.2013   -0.7936    0.1688 C   0  0  0  0  0
   -2.1101    2.4464    0.4335 C   0  0  0  0  0
   -0.0373    3.8908   -1.2702 C   0  0  0  0  0
   -2.2827    3.8901   -0.0655 C   0  0  0  0  0
   -1.5529    4.1671   -1.3990 C   0  0  0  0  0
   -2.1693    3.3759   -2.5575 C   0  0  0  0  0
   -1.3766   -0.7932    2.5016 N   0  0  0  0  0
    5.2291   -1.5444    1.0947 N   0  0  0  0  0
    3.2933   -2.9794    1.2493 N   0  0  0  0  0
    2.1120   -0.3080    0.9135 N   0  0  0  0  0
    3.5878   -0.4871   -0.9464 O   0  0  0  0  0
    5.4955   -0.2798    0.5622 O   0  0  0  0  0
    1.7485    1.8725   -0.5037 S   0  0  0  0  0
  2  1  1  0  0  0
  2  3  1  0  0  0
  4 19  1  0  0  0
  5 16  1  0  0  0
  5 19  1  0  0  0
  6  7  1  0  0  0
  6 15  1  0  0  0
  7 16  1  0  0  0
  8  3  1  0  0  0
  8 10  1  0  0  0
  9  4  1  0  0  0
  9 11  1  0  0  0
 10 11  1  0  0  0
 11 12  1  0  0  0
 14 18  1  0  0  0
  2  5  2  0  0  0
  3  4  2  0  0  0
  6 14  2  0  0  0
  7 17  2  0  0  0
  1 13  3  0  0  0
M  END
> <rmsd>
0.430384845

$$$$
ZINC92119291


 19 20  0  0  0  0  0  0  0  0999 V2000
    6.3258   -2.9265    2.4387 C   0  0  0  0  0
    0.4701    1.7504    1.4087 C   0  0  0  0  0
    5.1258   -3.6082    2.2364 C   0  0  0  0  0
    6.5123   -1.6619    1.8804 C   0  0  0  0  0
    0.4525    3.1385    1.4879 C   0  0  0  0  0
    1.1682    1.9406   -0.8569 C   0  0  0  0  0
    4.2986   -1.7607    0.9175 C   0  0  0  0  0
    0.8336    1.1322    0.2175 C   0  0  0  0  0
    4.1123   -3.0253    1.4758 C   0  0  0  0  0
    5.4987   -1.0790    1.1198 C   0  0  0  0  0
    0.8044    3.8570    0.3567 C   0  0  0  0  0
    3.2392   -1.1513    0.1215 C   0  0  0  0  0
    0.8627   -0.3643    0.0999 C   0  0  0  0  0
    1.1630    3.2918   -0.8179 N   0  0  0  0  0
    2.0143   -0.9364    0.7598 N   0  0  0  0  0
    3.4357   -0.8658   -1.0708 O   0  0  0  0  0
    2.9472   -3.7088    1.2917 O   0  0  0  0  0
    5.7015    0.1579    0.5841 O   0  0  0  0  0
    0.8113    5.5723    0.3621 Cl  0  0  0  0  0
  1  3  1  0  0  0
  2  8  1  0  0  0
  4 10  1  0  0  0
  5 11  1  0  0  0
  6 14  1  0  0  0
  7  9  1  0  0  0
  7 12  1  0  0  0
  9 17  1  0  0  0
 10 18  1  0  0  0
 11 19  1  0  0  0
 12 15  1  0  0  0
 13  8  1  0  0  0
 13 15  1  0  0  0
  1  4  2  0  0  0
  2  5  2  0  0  0
  3  9  2  0  0  0
  6  8  2  0  0  0
  7 10  2  0  0  0
 11 14  2  0  0  0
 12 16  2  0  0  0
M  END
> <rmsd>
0.277876019

$$$$
ZINC92121180


 20 21  0  0  0  0  0  0  0  0999 V2000
    6.3369   -2.9317    2.4232 C   0  0  0  0  0
    5.1371   -3.6145    2.2241 C   0  0  0  0  0
    6.5185   -1.6645    1.8691 C   0  0  0  0  0
    0.8439    3.9156    0.3512 C   0  0  0  0  0
    0.5124    3.1568    1.4735 C   0  0  0  0  0
    1.1838    1.8886   -0.9189 C   0  0  0  0  0
    4.3004   -1.7631    0.9166 C   0  0  0  0  0
    0.8522    1.1298    0.2035 C   0  0  0  0  0
    4.1188   -3.0304    1.4707 C   0  0  0  0  0
    5.5002   -1.0803    1.1158 C   0  0  0  0  0
    1.1796    3.2816   -0.8452 C   0  0  0  0  0
    0.5166    1.7639    1.3998 C   0  0  0  0  0
    3.2360   -1.1524    0.1283 C   0  0  0  0  0
    0.8582   -0.3693    0.1216 C   0  0  0  0  0
    2.0139   -0.9421    0.7735 N   0  0  0  0  0
    3.4263   -0.8619   -1.0637 O   0  0  0  0  0
    2.9540   -3.7151    1.2896 O   0  0  0  0  0
    5.6985    0.1591    0.5842 O   0  0  0  0  0
    1.4973    4.0104   -1.9230 F   0  0  0  0  0
    0.1968    1.0429    2.4834 F   0  0  0  0  0
  1  2  1  0  0  0
  3 10  1  0  0  0
  4 11  1  0  0  0
  5 12  1  0  0  0
  6  8  1  0  0  0
  7  9  1  0  0  0
  7 13  1  0  0  0
  9 17  1  0  0  0
 10 18  1  0  0  0
 11 19  1  0  0  0
 12 20  1  0  0  0
 13 15  1  0  0  0
 14  8  1  0  0  0
 14 15  1  0  0  0
  1  3  2  0  0  0
  2  9  2  0  0  0
  4  5  2  0  0  0
  6 11  2  0  0  0
  7 10  2  0  0  0
  8 12  2  0  0  0
 13 16  2  0  0  0
M  END
> <rmsd>
0.284376055

$$$$
ZINC92121180


 20 21  0  0  0  0  0  0  0  0999 V2000
    6.3362   -2.9306    2.4246 C   0  0  0  0  0
    5.1364   -3.6134    2.2252 C   0  0  0  0  0
    6.5182   -1.6637    1.8700 C   0  0  0  0  0
    0.8395    3.9160    0.3571 C   0  0  0  0  0
    1.1769    3.2863   -0.8409 C   0  0  0  0  0
    0.5155    1.7605    1.3990 C   0  0  0  0  0
    4.3004   -1.7624    0.9167 C   0  0  0  0  0
    0.8529    1.1307    0.2011 C   0  0  0  0  0
    4.1184   -3.0294    1.4712 C   0  0  0  0  0
    5.5003   -1.0796    1.1160 C   0  0  0  0  0
    0.5088    3.1532    1.4770 C   0  0  0  0  0
    1.1836    1.8936   -0.9189 C   0  0  0  0  0
    3.2364   -1.1518    0.1277 C   0  0  0  0  0
    0.8587   -0.3685    0.1197 C   0  0  0  0  0
    2.0141   -0.9411    0.7723 N   0  0  0  0  0
    3.4273   -0.8618   -1.0644 O   0  0  0  0  0
    2.9537   -3.7140    1.2898 O   0  0  0  0  0
    5.6989    0.1595    0.5841 O   0  0  0  0  0
    0.1855    3.7582    2.6274 F   0  0  0  0  0
    1.5090    1.2971   -2.0741 F   0  0  0  0  0
  1  2  1  0  0  0
  3 10  1  0  0  0
  4 11  1  0  0  0
  5 12  1  0  0  0
  6  8  1  0  0  0
  7  9  1  0  0  0
  7 13  1  0  0  0
  9 17  1  0  0  0
 10 18  1  0  0  0
 11 19  1  0  0  0
 12 20  1  0  0  0
 13 15  1  0  0  0
 14  8  1  0  0  0
 14 15  1  0  0  0
  1  3  2  0  0  0
  2  9  2  0  0  0
  4  5  2  0  0  0
  6 11  2  0  0  0
  7 10  2  0  0  0
  8 12  2  0  0  0
 13 16  2  0  0  0
M  END
> <rmsd>
0.283925802

$$$$
ZINC92125159


 20 21  0  0  0  0  0  0  0  0999 V2000
    6.3366   -2.9316    2.4242 C   0  0  0  0  0
    0.8413    3.9154    0.3543 C   0  0  0  0  0
    5.1367   -3.6144    2.2250 C   0  0  0  0  0
    6.5184   -1.6646    1.8699 C   0  0  0  0  0
    0.5102    3.1547    1.4755 C   0  0  0  0  0
    1.1781    3.2834   -0.8427 C   0  0  0  0  0
    4.3004   -1.7632    0.9171 C   0  0  0  0  0
    0.8526    1.1298    0.2028 C   0  0  0  0  0
    4.1186   -3.0303    1.4714 C   0  0  0  0  0
    5.5003   -1.0805    1.1162 C   0  0  0  0  0
    0.5158    1.7619    1.3998 C   0  0  0  0  0
    1.1837    1.8906   -0.9185 C   0  0  0  0  0
    3.2362   -1.1526    0.1284 C   0  0  0  0  0
    0.8584   -0.3693    0.1211 C   0  0  0  0  0
    2.0140   -0.9421    0.7734 N   0  0  0  0  0
    3.4267   -0.8623   -1.0637 O   0  0  0  0  0
    2.9538   -3.7150    1.2902 O   0  0  0  0  0
    5.6987    0.1588    0.5844 O   0  0  0  0  0
    0.1964    1.0396    2.4825 F   0  0  0  0  0
    1.5091    1.2923   -2.0729 F   0  0  0  0  0
  1  3  1  0  0  0
  2  5  1  0  0  0
  4 10  1  0  0  0
  6 12  1  0  0  0
  7  9  1  0  0  0
  7 13  1  0  0  0
  8 11  1  0  0  0
  9 17  1  0  0  0
 10 18  1  0  0  0
 11 19  1  0  0  0
 12 20  1  0  0  0
 13 15  1  0  0  0
 14  8  1  0  0  0
 14 15  1  0  0  0
  1  4  2  0  0  0
  2  6  2  0  0  0
  3  9  2  0  0  0
  5 11  2  0  0  0
  7 10  2  0  0  0
  8 12  2  0  0  0
 13 16  2  0  0  0
M  END
> <rmsd>
0.284162402

$$$$
ZINC92124439


 20 21  0  0  0  0  0  0  0  0999 V2000
    6.2664   -3.1136    2.3528 C   0  0  0  0  0
    4.9977   -3.6670    2.1802 C   0  0  0  0  0
    6.5630   -1.8651    1.8061 C   0  0  0  0  0
    4.3223   -1.7235    0.9138 C   0  0  0  0  0
    4.0256   -2.9720    1.4606 C   0  0  0  0  0
    5.5909   -1.1700    1.0866 C   0  0  0  0  0
    3.2873   -0.9833    0.1469 C   0  0  0  0  0
    1.6550    3.1235    3.2332 C   0  0  0  0  0
    1.9935    3.4623    1.7859 C   0  0  0  0  0
    0.3806    2.2956    3.3404 C   0  0  0  0  0
    2.0555    2.2101    0.9112 C   0  0  0  0  0
    0.4430    1.0394    2.4671 C   0  0  0  0  0
    0.7726    1.3481    0.9825 C   0  0  0  0  0
   -0.3960    2.0685    0.2764 C   0  0  0  0  0
    1.0223    0.0263    0.2267 C   0  0  0  0  0
    2.1094   -0.6568    0.8301 N   0  0  0  0  0
    3.4940   -0.7128   -1.0332 O   0  0  0  0  0
    2.7922   -3.5310    1.3050 O   0  0  0  0  0
    5.9018    0.0489    0.5616 O   0  0  0  0  0
   -0.7966    0.3418    2.5660 O   0  0  0  0  0
  1  2  1  0  0  0
  3  6  1  0  0  0
  4  5  1  0  0  0
  4  7  1  0  0  0
  5 18  1  0  0  0
  6 19  1  0  0  0
  7 16  1  0  0  0
  8  9  1  0  0  0
  8 10  1  0  0  0
  9 11  1  0  0  0
 10 12  1  0  0  0
 11 13  1  0  0  0
 12 13  1  0  0  0
 12 20  1  0  0  0
 13 14  1  0  0  0
 13 15  1  0  0  0
 15 16  1  0  0  0
  1  3  2  0  0  0
  2  5  2  0  0  0
  4  6  2  0  0  0
  7 17  2  0  0  0
M  END
> <rmsd>
0.49218148

$$$$
ZINC92124434


 20 21  0  0  0  0  0  0  0  0999 V2000
    6.2605   -3.1126    2.3588 C   0  0  0  0  0
    4.9911   -3.6641    2.1850 C   0  0  0  0  0
    6.5603   -1.8656    1.8104 C   0  0  0  0  0
    4.3213   -1.7216    0.9141 C   0  0  0  0  0
    4.0216   -2.9686    1.4627 C   0  0  0  0  0
    5.5907   -1.1702    1.0880 C   0  0  0  0  0
    3.2889   -0.9810    0.1442 C   0  0  0  0  0
    1.6252    3.1056    3.2596 C   0  0  0  0  0
    0.3502    2.2727    3.3349 C   0  0  0  0  0
    1.9853    3.4649    1.8234 C   0  0  0  0  0
    0.4301    1.0322    2.4446 C   0  0  0  0  0
    2.0643    2.2231    0.9307 C   0  0  0  0  0
    0.7768    1.3564    0.9711 C   0  0  0  0  0
   -0.4161    2.0574    0.2870 C   0  0  0  0  0
    1.0257    0.0329    0.2184 C   0  0  0  0  0
    2.1106   -0.6512    0.8248 N   0  0  0  0  0
    3.4981   -0.7129   -1.0360 O   0  0  0  0  0
    2.7873   -3.5257    1.3059 O   0  0  0  0  0
    5.9047    0.0472    0.5613 O   0  0  0  0  0
    2.3842    2.6210   -0.4005 O   0  0  0  0  0
  1  2  1  0  0  0
  3  6  1  0  0  0
  4  5  1  0  0  0
  4  7  1  0  0  0
  5 18  1  0  0  0
  6 19  1  0  0  0
  7 16  1  0  0  0
  8  9  1  0  0  0
  8 10  1  0  0  0
  9 11  1  0  0  0
 10 12  1  0  0  0
 11 13  1  0  0  0
 12 13  1  0  0  0
 12 20  1  0  0  0
 13 14  1  0  0  0
 13 15  1  0  0  0
 15 16  1  0  0  0
  1  3  2  0  0  0
  2  5  2  0  0  0
  4  6  2  0  0  0
  7 17  2  0  0  0
M  END
> <rmsd>
0.50222832

$$$$
ZINC92124437


 20 21  0  0  0  0  0  0  0  0999 V2000
    6.3713   -3.0475    2.2822 C   0  0  0  0  0
    5.1389   -3.6798    2.1183 C   0  0  0  0  0
    6.5748   -1.7701    1.7603 C   0  0  0  0  0
    4.3135   -1.7573    0.9100 C   0  0  0  0  0
    4.1100   -3.0347    1.4321 C   0  0  0  0  0
    5.5459   -1.1250    1.0741 C   0  0  0  0  0
    3.2178   -1.0704    0.1786 C   0  0  0  0  0
    0.7248    3.3492   -0.8320 C   0  0  0  0  0
    1.9881    2.6706   -0.3147 C   0  0  0  0  0
   -0.4721    2.4068   -0.8212 C   0  0  0  0  0
    1.7710    2.0456    1.0633 C   0  0  0  0  0
   -0.6925    1.7827    0.5596 C   0  0  0  0  0
    0.5706    1.0705    1.1123 C   0  0  0  0  0
    0.3272    0.6591    2.5794 C   0  0  0  0  0
    0.8931   -0.2152    0.3210 C   0  0  0  0  0
    2.0340   -0.8380    0.8894 N   0  0  0  0  0
    3.3843   -0.7601   -0.9981 O   0  0  0  0  0
    2.9133   -3.6707    1.2842 O   0  0  0  0  0
    5.7660    0.1234    0.5728 O   0  0  0  0  0
   -1.7860    0.8704    0.4889 O   0  0  0  0  0
  1  2  1  0  0  0
  3  6  1  0  0  0
  4  5  1  0  0  0
  4  7  1  0  0  0
  5 18  1  0  0  0
  6 19  1  0  0  0
  7 16  1  0  0  0
  8  9  1  0  0  0
  8 10  1  0  0  0
  9 11  1  0  0  0
 10 12  1  0  0  0
 11 13  1  0  0  0
 12 13  1  0  0  0
 12 20  1  0  0  0
 13 14  1  0  0  0
 13 15  1  0  0  0
 15 16  1  0  0  0
  1  3  2  0  0  0
  2  5  2  0  0  0
  4  6  2  0  0  0
  7 17  2  0  0  0
M  END
> <rmsd>
0.213620171

$$$$
ZINC92125961


 20 21  0  0  0  0  0  0  0  0999 V2000
    6.3904   -3.0918    2.1838 C   0  0  0  0  0
    5.1466   -3.7073    2.0426 C   0  0  0  0  0
    6.5923   -1.8047    1.6853 C   0  0  0  0  0
    4.3066   -1.7486    0.9044 C   0  0  0  0  0
    4.1048   -3.0356    1.4029 C   0  0  0  0  0
    5.5504   -1.1332    1.0456 C   0  0  0  0  0
    3.1973   -1.0334    0.2225 C   0  0  0  0  0
    0.1117    2.2207   -0.1902 C   0  0  0  0  0
    1.5964    2.1706   -0.4111 C   0  0  0  0  0
    0.9698    1.3275    0.6747 C   0  0  0  0  0
   -3.5059    2.3027    2.8259 C   0  0  0  0  0
    1.1964    1.7366    2.1042 C   0  0  0  0  0
    0.8874   -0.1580    0.4546 C   0  0  0  0  0
   -2.2701    1.6154    3.3665 C   0  0  0  0  0
    0.0365    1.3377    3.0125 C   0  0  0  0  0
    2.0489   -0.8118    0.9787 N   0  0  0  0  0
    3.3318   -0.6976   -0.9513 O   0  0  0  0  0
    2.8972   -3.6555    1.2768 O   0  0  0  0  0
    5.7692    0.1241    0.5668 O   0  0  0  0  0
   -1.1567    1.9563    2.5515 O   0  0  0  0  0
  1  2  1  0  0  0
  3  6  1  0  0  0
  4  5  1  0  0  0
  4  7  1  0  0  0
  5 18  1  0  0  0
  6 19  1  0  0  0
  7 16  1  0  0  0
  8  9  1  0  0  0
  8 10  1  0  0  0
  9 10  1  0  0  0
 10 12  1  0  0  0
 10 13  1  0  0  0
 11 14  1  0  0  0
 12 15  1  0  0  0
 13 16  1  0  0  0
 14 20  1  0  0  0
 15 20  1  0  0  0
  1  3  2  0  0  0
  2  5  2  0  0  0
  4  6  2  0  0  0
  7 17  2  0  0  0
M  END
> <rmsd>
0.318383008

$$$$
ZINC92125961


 20 21  0  0  0  0  0  0  0  0999 V2000
    6.3904   -3.0921    2.1841 C   0  0  0  0  0
    5.1466   -3.7075    2.0428 C   0  0  0  0  0
    6.5924   -1.8050    1.6856 C   0  0  0  0  0
    4.3068   -1.7488    0.9045 C   0  0  0  0  0
    4.1049   -3.0358    1.4031 C   0  0  0  0  0
    5.5506   -1.1335    1.0458 C   0  0  0  0  0
    3.1976   -1.0336    0.2225 C   0  0  0  0  0
    0.1121    2.2205   -0.1906 C   0  0  0  0  0
    1.5968    2.1704   -0.4113 C   0  0  0  0  0
    0.9702    1.3273    0.6745 C   0  0  0  0  0
   -0.3925    1.8906    6.6210 C   0  0  0  0  0
    1.1967    1.7365    2.1040 C   0  0  0  0  0
    0.8877   -0.1581    0.4544 C   0  0  0  0  0
   -0.7430    1.4133    5.2279 C   0  0  0  0  0
    0.0366    1.3377    3.0122 C   0  0  0  0  0
    2.0491   -0.8119    0.9786 N   0  0  0  0  0
    3.3322   -0.6979   -0.9513 O   0  0  0  0  0
    2.8973   -3.6557    1.2768 O   0  0  0  0  0
    5.7695    0.1238    0.5669 O   0  0  0  0  0
    0.3108    1.7621    4.3401 O   0  0  0  0  0
  1  2  1  0  0  0
  3  6  1  0  0  0
  4  5  1  0  0  0
  4  7  1  0  0  0
  5 18  1  0  0  0
  6 19  1  0  0  0
  7 16  1  0  0  0
  8  9  1  0  0  0
  8 10  1  0  0  0
  9 10  1  0  0  0
 10 12  1  0  0  0
 10 13  1  0  0  0
 11 14  1  0  0  0
 12 15  1  0  0  0
 13 16  1  0  0  0
 14 20  1  0  0  0
 15 20  1  0  0  0
  1  3  2  0  0  0
  2  5  2  0  0  0
  4  6  2  0  0  0
  7 17  2  0  0  0
M  END
> <rmsd>
0.318489343

$$$$
ZINC14944181


 19 18  0  0  0  0  0  0  0  0999 V2000
    1.5135    2.2542    0.4519 C   0  0  0  0  0
    5.3361    2.6526    2.3197 C   0  0  0  0  0
    0.0402    1.9486    0.4708 C   0  0  0  0  0
    5.5252    3.2813    3.6736 C   0  0  0  0  0
    4.9431   -4.7795    0.9950 C   0  0  0  0  0
    4.3016   -3.3952    1.0858 C   0  0  0  0  0
    4.3036   -2.5139   -0.1820 C   0  0  0  0  0
    3.6320   -1.1329   -0.0434 C   0  0  0  0  0
    4.3228   -0.1770    0.9558 C   0  0  0  0  0
    3.7266    1.2424    1.0237 C   0  0  0  0  0
    2.2712    1.2096    0.9537 N   0  0  0  0  0
    4.1569    1.9318    2.2360 N   0  0  0  0  0
    1.9513    3.3143    0.0129 O   0  0  0  0  0
    6.1509    2.8024    1.4130 O   0  0  0  0  0
    4.2572   -5.6038    0.0701 O   0  0  0  0  0
    2.9477   -3.5409    1.5104 O   0  0  0  0  0
    5.6316   -2.3411   -0.6696 O   0  0  0  0  0
    3.6319   -0.4628   -1.3083 O   0  0  0  0  0
    5.7004   -0.0554    0.5718 O   0  0  0  0  0
  1 11  1  0  0  0
  2 12  1  0  0  0
  3  1  1  0  0  0
  4  2  1  0  0  0
  5  6  1  0  0  0
  5 15  1  0  0  0
  6  7  1  0  0  0
  6 16  1  0  0  0
  7  8  1  0  0  0
  7 17  1  0  0  0
  8  9  1  0  0  0
  8 18  1  0  0  0
  9 10  1  0  0  0
  9 19  1  0  0  0
 10 11  1  0  0  0
 10 12  1  0  0  0
  1 13  2  0  0  0
  2 14  2  0  0  0
M  END
> <rmsd>
0.359293967

$$$$
ZINC92121659


 20 21  0  0  0  0  0  0  0  0999 V2000
    6.5344   -3.3628    1.7782 C   0  0  0  0  0
    5.2497   -3.9043    1.7327 C   0  0  0  0  0
    6.7504   -2.0451    1.3750 C   0  0  0  0  0
    4.3972   -1.8106    0.8804 C   0  0  0  0  0
    4.1812   -3.1283    1.2837 C   0  0  0  0  0
    5.6819   -1.2689    0.9261 C   0  0  0  0  0
    3.2594   -0.9840    0.4016 C   0  0  0  0  0
    0.3496    3.6970    1.3822 C   0  0  0  0  0
    0.6008    3.8207    2.8786 C   0  0  0  0  0
    1.5480    1.5298    2.8502 C   0  0  0  0  0
    1.2691    1.4471    1.3407 C   0  0  0  0  0
   -0.1963    2.2542   -0.4499 C   0  0  0  0  0
    2.1441    3.0974    4.6976 C   0  0  0  0  0
    1.0448   -0.0290    0.9843 C   0  0  0  0  0
    0.1136    2.2995    0.9818 N   0  0  0  0  0
    2.2109   -0.7765    1.3038 N   0  0  0  0  0
    1.7809    2.9640    3.2457 N   0  0  0  0  0
    3.2773   -0.5454   -0.7455 O   0  0  0  0  0
    2.9339   -3.6773    1.2483 O   0  0  0  0  0
    5.9153    0.0165    0.5376 O   0  0  0  0  0
  1  2  1  0  0  0
  3  6  1  0  0  0
  4  5  1  0  0  0
  4  7  1  0  0  0
  5 19  1  0  0  0
  6 20  1  0  0  0
  7 16  1  0  0  0
  8  9  1  0  0  0
  8 15  1  0  0  0
  9 17  1  0  0  0
 10 11  1  0  0  0
 10 17  1  0  0  0
 11 14  1  0  0  0
 11 15  1  0  0  0
 12 15  1  0  0  0
 13 17  1  0  0  0
 14 16  1  0  0  0
  1  3  2  0  0  0
  2  5  2  0  0  0
  4  6  2  0  0  0
  7 18  2  0  0  0
M  CHG  1  17   1
M  END
> <rmsd>
0.525615275

$$$$
ZINC92123495


 19 20  0  0  0  0  0  0  0  0999 V2000
    6.4791   -3.2234    1.9769 C   0  0  0  0  0
    5.2098   -3.7823    1.8289 C   0  0  0  0  0
    6.7141   -1.9094    1.5722 C   0  0  0  0  0
    4.4104   -1.7132    0.8712 C   0  0  0  0  0
    4.1754   -3.0273    1.2760 C   0  0  0  0  0
    5.6797   -1.1543    1.0194 C   0  0  0  0  0
    3.3191   -0.9165    0.2872 C   0  0  0  0  0
    2.6979   -0.1107    2.6081 C   0  0  0  0  0
    1.4045    0.6114    0.5806 C   0  0  0  0  0
    1.4104    0.1645    3.3709 C   0  0  0  0  0
    1.2205    1.9749    1.2482 C   0  0  0  0  0
    0.7549    3.4755   -0.7084 C   0  0  0  0  0
   -1.0280    1.9224    0.1357 C   0  0  0  0  0
    0.1599    2.7992    0.5245 C   0  0  0  0  0
    2.5176   -0.1548    1.1494 N   0  0  0  0  0
    3.1942   -0.9748   -0.9357 O   0  0  0  0  0
    2.9425   -3.5931    1.1415 O   0  0  0  0  0
    5.9311    0.1280    0.6314 O   0  0  0  0  0
    0.7331    1.8121    3.0059 S   0  0  0  0  0
  1  2  1  0  0  0
  3  6  1  0  0  0
  4  5  1  0  0  0
  4  7  1  0  0  0
  5 17  1  0  0  0
  6 18  1  0  0  0
  7 15  1  0  0  0
  8 10  1  0  0  0
  8 15  1  0  0  0
  9 11  1  0  0  0
  9 15  1  0  0  0
 10 19  1  0  0  0
 11 14  1  0  0  0
 11 19  1  0  0  0
 12 14  1  0  0  0
 13 14  1  0  0  0
  1  3  2  0  0  0
  2  5  2  0  0  0
  4  6  2  0  0  0
  7 16  2  0  0  0
M  END
> <rmsd>
0.470141709

$$$$
ZINC92125655


 19 20  0  0  0  0  0  0  0  0999 V2000
    6.5318   -3.2942    1.8054 C   0  0  0  0  0
    5.2517   -3.8370    1.6948 C   0  0  0  0  0
    6.7601   -1.9665    1.4435 C   0  0  0  0  0
    4.4282   -1.7245    0.8602 C   0  0  0  0  0
    4.1999   -3.0521    1.2222 C   0  0  0  0  0
    5.7083   -1.1817    0.9709 C   0  0  0  0  0
    3.3188   -0.8966    0.3612 C   0  0  0  0  0
    2.9808    2.3763    2.8708 C   0  0  0  0  0
    2.4396    1.0936    3.4990 C   0  0  0  0  0
    2.0542    2.9550    1.7984 C   0  0  0  0  0
    2.8225   -0.1724    2.7342 C   0  0  0  0  0
    1.4667    0.6708    0.7817 C   0  0  0  0  0
    1.9360    2.1068    0.5263 C   0  0  0  0  0
   -0.7729    2.3523    0.1842 C   0  0  0  0  0
    2.5618   -0.1618    1.2895 N   0  0  0  0  0
    3.1314   -0.9134   -0.8552 O   0  0  0  0  0
    2.9567   -3.6026    1.1232 O   0  0  0  0  0
    5.9534    0.1134    0.6237 O   0  0  0  0  0
    0.7474    2.9258   -0.6021 S   0  0  0  0  0
  1  2  1  0  0  0
  3  6  1  0  0  0
  4  5  1  0  0  0
  4  7  1  0  0  0
  5 17  1  0  0  0
  6 18  1  0  0  0
  7 15  1  0  0  0
  8  9  1  0  0  0
  8 10  1  0  0  0
  9 11  1  0  0  0
 10 13  1  0  0  0
 11 15  1  0  0  0
 12 13  1  0  0  0
 12 15  1  0  0  0
 13 19  1  0  0  0
 14 19  1  0  0  0
  1  3  2  0  0  0
  2  5  2  0  0  0
  4  6  2  0  0  0
  7 16  2  0  0  0
M  END
> <rmsd>
0.483606428

$$$$
ZINC92124352


 20 20  0  0  0  0  0  0  0  0999 V2000
    6.2249   -2.7795    2.6042 C   0  0  0  0  0
    5.0588   -3.5056    2.3625 C   0  0  0  0  0
    6.4070   -1.5328    2.0055 C   0  0  0  0  0
    4.2569   -1.7386    0.9232 C   0  0  0  0  0
    4.0748   -2.9852    1.5220 C   0  0  0  0  0
    5.4229   -1.0123    1.1650 C   0  0  0  0  0
    3.2091   -1.1844    0.0275 C   0  0  0  0  0
    0.4452    2.1083    1.4246 C   0  0  0  0  0
    1.8594    3.3306   -0.2363 C   0  0  0  0  0
   -0.8012   -2.8481    0.4354 C   0  0  0  0  0
   -0.1309   -3.8540   -1.7417 C   0  0  0  0  0
    1.1122    0.9281   -0.6929 C   0  0  0  0  0
    0.4394   -1.4830   -1.2377 C   0  0  0  0  0
    1.5462    1.9617    0.3696 C   0  0  0  0  0
    0.8351   -0.4843   -0.1457 C   0  0  0  0  0
    1.9628   -0.9926    0.6021 N   0  0  0  0  0
    0.2157   -2.8391   -0.6797 N   0  0  0  0  0
    3.4855   -0.9506   -1.1462 O   0  0  0  0  0
    2.9426   -3.7113    1.3004 O   0  0  0  0  0
    5.6209    0.2080    0.5911 O   0  0  0  0  0
  1  2  1  0  0  0
  3  6  1  0  0  0
  4  5  1  0  0  0
  4  7  1  0  0  0
  5 19  1  0  0  0
  6 20  1  0  0  0
  7 16  1  0  0  0
  8 14  1  0  0  0
  9 14  1  0  0  0
 10 17  1  0  0  0
 11 17  1  0  0  0
 12 14  1  0  0  0
 12 15  1  0  0  0
 13 15  1  0  0  0
 13 17  1  0  0  0
 15 16  1  0  0  0
  1  3  2  0  0  0
  2  5  2  0  0  0
  4  6  2  0  0  0
  7 18  2  0  0  0
M  CHG  1  17   1
M  END
> <rmsd>
0.451881111

$$$$
ZINC92124352


 20 20  0  0  0  0  0  0  0  0999 V2000
    6.3843   -3.0012    2.3144 C   0  0  0  0  0
    5.1764   -3.6840    2.1732 C   0  0  0  0  0
    6.5414   -1.7367    1.7468 C   0  0  0  0  0
    4.2822   -1.8380    0.8965 C   0  0  0  0  0
    4.1253   -3.1025    1.4642 C   0  0  0  0  0
    5.4903   -1.1551    1.0378 C   0  0  0  0  0
    3.1632   -1.2187    0.1407 C   0  0  0  0  0
    0.3142   -3.3863   -2.0660 C   0  0  0  0  0
   -1.2530   -4.4934   -0.4627 C   0  0  0  0  0
    1.3384    1.4361   -1.4728 C   0  0  0  0  0
    0.9104    2.6987    0.6303 C   0  0  0  0  0
   -0.4488   -2.1025   -0.0433 C   0  0  0  0  0
    0.3139    0.2856    0.4839 C   0  0  0  0  0
   -0.0963   -3.5016   -0.5947 C   0  0  0  0  0
    0.6979   -1.0765   -0.1020 C   0  0  0  0  0
    1.8880   -1.5755    0.5493 N   0  0  0  0  0
    1.2388    1.3532    0.0308 N   0  0  0  0  0
    3.4160   -0.4612   -0.7924 O   0  0  0  0  0
    2.9530   -3.7870    1.3392 O   0  0  0  0  0
    5.6649    0.0816    0.4921 O   0  0  0  0  0
  1  2  1  0  0  0
  3  6  1  0  0  0
  4  5  1  0  0  0
  4  7  1  0  0  0
  5 19  1  0  0  0
  6 20  1  0  0  0
  7 16  1  0  0  0
  8 14  1  0  0  0
  9 14  1  0  0  0
 10 17  1  0  0  0
 11 17  1  0  0  0
 12 14  1  0  0  0
 12 15  1  0  0  0
 13 15  1  0  0  0
 13 17  1  0  0  0
 15 16  1  0  0  0
  1  3  2  0  0  0
  2  5  2  0  0  0
  4  6  2  0  0  0
  7 18  2  0  0  0
M  CHG  1  17   1
M  END
> <rmsd>
0.47306937

$$$$
ZINC86133068


 20 21  0  0  0  0  0  0  0  0999 V2000
    1.4234   -0.9390    0.3765 C   0  0  0  0  0
    2.5148   -1.5159   -0.2955 C   0  0  0  0  0
    1.3318    0.3148   -0.1674 C   0  0  0  0  0
    3.8543   -3.1162    2.2735 C   0  0  0  0  0
    8.9293    0.3463    2.7771 C   0  0  0  0  0
    8.2279   -0.8646    3.3928 C   0  0  0  0  0
    7.9752    0.9053    1.7215 C   0  0  0  0  0
    7.1353   -1.2303    2.3922 C   0  0  0  0  0
    6.6699    0.1393    1.9047 C   0  0  0  0  0
    0.4351    1.4557    0.0544 C   0  0  0  0  0
    2.5395   -4.7841    5.3900 C   0  0  0  0  0
    3.0863   -2.8920   -0.1107 C   0  0  0  0  0
    6.0189   -2.0635    3.0019 C   0  0  0  0  0
    2.4568   -4.3921    3.9302 C   0  0  0  0  0
    3.0586   -0.6836   -1.1879 N   0  0  0  0  0
    2.9156   -3.3763    1.2597 N   0  0  0  0  0
    5.0338   -2.3578    2.0134 N   0  0  0  0  0
    3.6389   -3.6065    3.5736 N   0  0  0  0  0
    2.3022    0.4792   -1.1024 O   0  0  0  0  0
    5.9540    0.0341    0.6891 O   0  0  0  0  0
  1  2  1  0  0  0
  3 19  1  0  0  0
  4 16  1  0  0  0
  4 17  1  0  0  0
  5  6  1  0  0  0
  5  7  1  0  0  0
  6  8  1  0  0  0
  7  9  1  0  0  0
  8  9  1  0  0  0
  8 13  1  0  0  0
  9 20  1  0  0  0
 10  3  1  0  0  0
 11 14  1  0  0  0
 12  2  1  0  0  0
 12 16  1  0  0  0
 13 17  1  0  0  0
 14 18  1  0  0  0
 15 19  1  0  0  0
  1  3  2  0  0  0
  2 15  2  0  0  0
  4 18  2  0  0  0
M  CHG  1  18   1
M  END
> <rmsd>
0.477247

$$$$
ZINC92123599


 21 22  0  0  0  0  0  0  0  0999 V2000
    1.8075    3.7902    2.6138 C   0  0  0  0  0
    0.3050    3.2769   -0.7529 C   0  0  0  0  0
    6.3270   -2.9273    2.4358 C   0  0  0  0  0
    0.7947    3.9065    0.3914 C   0  0  0  0  0
    0.3268    1.8854   -0.8469 C   0  0  0  0  0
    5.1268   -3.6087    2.2340 C   0  0  0  0  0
    6.5131   -1.6624    1.8781 C   0  0  0  0  0
    1.3283    1.7529    1.3477 C   0  0  0  0  0
    1.3065    3.1445    1.4417 C   0  0  0  0  0
    4.2988   -1.7603    0.9169 C   0  0  0  0  0
    0.8385    1.1234    0.2034 C   0  0  0  0  0
    4.1127   -3.0253    1.4746 C   0  0  0  0  0
    5.4990   -1.0789    1.1186 C   0  0  0  0  0
    3.2190   -1.1390    0.1074 C   0  0  0  0  0
   -0.4182   -1.0282    0.6315 C   0  0  0  0  0
    0.8619   -0.3644    0.1027 C   0  0  0  0  0
    2.2143    4.3146    3.5658 N   0  0  0  0  0
    2.0206   -0.9389    0.7651 N   0  0  0  0  0
    3.4344   -0.8642   -1.0701 O   0  0  0  0  0
    2.9474   -3.7085    1.2910 O   0  0  0  0  0
    5.7016    0.1584    0.5837 O   0  0  0  0  0
  2  4  1  0  0  0
  3  6  1  0  0  0
  5 11  1  0  0  0
  7 13  1  0  0  0
  8  9  1  0  0  0
  9  1  1  0  0  0
 10 12  1  0  0  0
 10 14  1  0  0  0
 12 20  1  0  0  0
 13 21  1  0  0  0
 14 18  1  0  0  0
 15 16  1  0  0  0
 16 11  1  0  0  0
 16 18  1  0  0  0
  2  5  2  0  0  0
  3  7  2  0  0  0
  4  9  2  0  0  0
  6 12  2  0  0  0
  8 11  2  0  0  0
 10 13  2  0  0  0
 14 19  2  0  0  0
  1 17  3  0  0  0
M  END
> <rmsd>
0.277545482

$$$$
ZINC92123599


 21 22  0  0  0  0  0  0  0  0999 V2000
    0.8224    3.3205   -2.5789 C   0  0  0  0  0
    0.5134    2.5598    1.0518 C   0  0  0  0  0
    6.3318   -3.0086    2.3859 C   0  0  0  0  0
    0.6003    3.2720   -0.1444 C   0  0  0  0  0
    0.5593    1.1657    1.0385 C   0  0  0  0  0
    5.1119   -3.6672    2.2326 C   0  0  0  0  0
    6.5288   -1.7593    1.7976 C   0  0  0  0  0
    0.7787    1.1960   -1.3674 C   0  0  0  0  0
    0.7329    2.5901   -1.3539 C   0  0  0  0  0
    4.2858   -1.8272    0.9024 C   0  0  0  0  0
    0.6919    0.4838   -0.1711 C   0  0  0  0  0
    4.0889   -3.0765    1.4908 C   0  0  0  0  0
    5.5058   -1.1686    1.0558 C   0  0  0  0  0
    3.1967   -1.1983    0.1118 C   0  0  0  0  0
   -0.5255   -1.6603    0.3877 C   0  0  0  0  0
    0.7408   -1.0067   -0.1852 C   0  0  0  0  0
    0.8951    3.9137   -3.5737 N   0  0  0  0  0
    1.9119   -1.5216    0.5039 N   0  0  0  0  0
    3.4855   -0.4651   -0.8303 O   0  0  0  0  0
    2.9044   -3.7374    1.3546 O   0  0  0  0  0
    5.7194    0.0530    0.4902 O   0  0  0  0  0
  2  4  1  0  0  0
  3  6  1  0  0  0
  5 11  1  0  0  0
  7 13  1  0  0  0
  8  9  1  0  0  0
  9  1  1  0  0  0
 10 12  1  0  0  0
 10 14  1  0  0  0
 12 20  1  0  0  0
 13 21  1  0  0  0
 14 18  1  0  0  0
 15 16  1  0  0  0
 16 11  1  0  0  0
 16 18  1  0  0  0
  2  5  2  0  0  0
  3  7  2  0  0  0
  4  9  2  0  0  0
  6 12  2  0  0  0
  8 11  2  0  0  0
 10 13  2  0  0  0
 14 19  2  0  0  0
  1 17  3  0  0  0
M  END
> <rmsd>
0.340822428

$$$$
ZINC92967660


 20 20  0  0  0  0  0  0  0  0999 V2000
    2.8947   -1.2818    0.7665 C   0  0  0  0  0
    1.9502   -0.3049    0.9983 C   0  0  0  0  0
    1.7094    0.6226    0.0016 C   0  0  0  0  0
    3.5358   -1.2620   -0.4531 C   0  0  0  0  0
    3.1925   -2.2896    1.7784 C   0  0  0  0  0
    1.2007   -0.2425    2.2878 C   0  0  0  0  0
    0.7111    1.7158    0.1501 C   0  0  0  0  0
    4.9095   -2.5890   -3.0966 C   0  0  0  0  0
    6.9673   -0.7209   -1.2909 C   0  0  0  0  0
    7.7677   -1.2488    1.0239 C   0  0  0  0  0
    4.3215   -3.1572   -1.8500 C   0  0  0  0  0
    5.6847   -2.3768    0.0946 C   0  0  0  0  0
    6.5360   -1.0990    0.1291 C   0  0  0  0  0
    3.2933   -0.3530   -1.4168 N   0  0  0  0  0
    3.6370   -1.8407    2.9366 N   0  0  0  0  0
    2.3776    0.5715   -1.1577 N   0  0  0  0  0
    3.0230   -3.6559    1.5475 N   0  0  0  0  0
    4.5026   -2.2455   -0.7165 N   0  0  0  0  0
    5.7491   -0.0245    0.6483 O   0  0  0  0  0
    3.8917   -2.8822    3.8346 O   0  0  0  0  0
  1  4  1  0  0  0
  1  5  1  0  0  0
  2  3  1  0  0  0
  4 18  1  0  0  0
  5 17  1  0  0  0
  6  2  1  0  0  0
  7  3  1  0  0  0
  8 11  1  0  0  0
  9 13  1  0  0  0
 10 13  1  0  0  0
 11 18  1  0  0  0
 12 13  1  0  0  0
 12 18  1  0  0  0
 13 19  1  0  0  0
 15 20  1  0  0  0
 16 14  1  0  0  0
  1  2  2  0  0  0
  3 16  2  0  0  0
  4 14  2  0  0  0
  5 15  2  0  0  0
M  CHG  1  16   1
M  END
> <rmsd>
0.378210366

$$$$
ZINC92108490


 21 23  0  0  0  0  0  0  0  0999 V2000
    0.9378    5.7281    0.3183 C   0  0  0  0  0
    1.2625    5.4747   -1.0168 C   0  0  0  0  0
    6.3627   -2.9852    2.3387 C   0  0  0  0  0
    0.6993    4.6784    1.2161 C   0  0  0  0  0
    1.3611    4.1679   -1.5037 C   0  0  0  0  0
    5.1482   -3.6475    2.1598 C   0  0  0  0  0
    6.5470   -1.7098    1.8048 C   0  0  0  0  0
    0.6327    2.0641    1.3142 C   0  0  0  0  0
    0.7932    3.3562    0.7480 C   0  0  0  0  0
    4.3023   -1.7590    0.9126 C   0  0  0  0  0
    1.1189    3.1456   -0.5880 C   0  0  0  0  0
    4.1180   -3.0344    1.4466 C   0  0  0  0  0
    5.5167   -1.0968    1.0917 C   0  0  0  0  0
    0.8680    1.1643    0.3005 C   0  0  0  0  0
    3.2053   -1.1062    0.1526 C   0  0  0  0  0
    0.8593   -0.3038    0.2409 C   0  0  0  0  0
    2.0280   -0.9058    0.8511 N   0  0  0  0  0
    3.3868   -0.8063   -1.0246 O   0  0  0  0  0
    1.1636    1.8104   -0.8575 O   0  0  0  0  0
    2.9391   -3.6993    1.2845 O   0  0  0  0  0
    5.7178    0.1502    0.5792 O   0  0  0  0  0
  1  2  1  0  0  0
  3  6  1  0  0  0
  4  9  1  0  0  0
  5 11  1  0  0  0
  7 13  1  0  0  0
  8  9  1  0  0  0
 10 12  1  0  0  0
 10 15  1  0  0  0
 11 19  1  0  0  0
 12 20  1  0  0  0
 13 21  1  0  0  0
 14 19  1  0  0  0
 15 17  1  0  0  0
 16 14  1  0  0  0
 16 17  1  0  0  0
  1  4  2  0  0  0
  2  5  2  0  0  0
  3  7  2  0  0  0
  6 12  2  0  0  0
  8 14  2  0  0  0
  9 11  2  0  0  0
 10 13  2  0  0  0
 15 18  2  0  0  0
M  END
> <rmsd>
0.268975794

$$$$
ZINC92121005


 21 23  0  0  0  0  0  0  0  0999 V2000
    1.3612    5.6459    0.4956 C   0  0  0  0  0
    0.0114    5.6187    0.1376 C   0  0  0  0  0
    6.3329   -2.9698    2.3831 C   0  0  0  0  0
    2.0904    4.4603    0.6511 C   0  0  0  0  0
   -0.6582    4.4095   -0.0776 C   0  0  0  0  0
    5.1184   -3.6292    2.1947 C   0  0  0  0  0
    6.5299   -1.7013    1.8373 C   0  0  0  0  0
    4.2977   -1.7518    0.9144 C   0  0  0  0  0
    1.4335    3.2365    0.4390 C   0  0  0  0  0
    0.0878    3.2415    0.0830 C   0  0  0  0  0
    4.1008   -3.0202    1.4603 C   0  0  0  0  0
    5.5123   -1.0923    1.1029 C   0  0  0  0  0
    0.8857    1.1832    0.2293 C   0  0  0  0  0
    3.2142   -1.1034    0.1316 C   0  0  0  0  0
    0.8704   -0.2906    0.1779 C   0  0  0  0  0
    1.9120    1.9492    0.5248 N   0  0  0  0  0
   -0.2361    1.9151   -0.0444 N   0  0  0  0  0
    2.0263   -0.8894    0.8104 N   0  0  0  0  0
    3.4133   -0.8177   -1.0461 O   0  0  0  0  0
    2.9215   -3.6823    1.2893 O   0  0  0  0  0
    5.7256    0.1479    0.5791 O   0  0  0  0  0
  1  2  1  0  0  0
  3  6  1  0  0  0
  4  9  1  0  0  0
  5 10  1  0  0  0
  7 12  1  0  0  0
  8 11  1  0  0  0
  8 14  1  0  0  0
  9 16  1  0  0  0
 10 17  1  0  0  0
 11 20  1  0  0  0
 12 21  1  0  0  0
 13 17  1  0  0  0
 14 18  1  0  0  0
 15 13  1  0  0  0
 15 18  1  0  0  0
  1  4  2  0  0  0
  2  5  2  0  0  0
  3  7  2  0  0  0
  6 11  2  0  0  0
  8 12  2  0  0  0
  9 10  2  0  0  0
 13 16  2  0  0  0
 14 19  2  0  0  0
M  END
> <rmsd>
0.244163126

$$$$
ZINC92121668


 21 23  0  0  0  0  0  0  0  0999 V2000
    4.0511    5.5152    0.8772 C   0  0  0  0  0
    4.5779    4.2237    0.8830 C   0  0  0  0  0
    2.7360    5.7303    0.4649 C   0  0  0  0  0
    6.3883   -3.0868    2.1909 C   0  0  0  0  0
    3.7896    3.1471    0.4764 C   0  0  0  0  0
    1.9477    4.6537    0.0584 C   0  0  0  0  0
    5.1455   -3.7037    2.0481 C   0  0  0  0  0
    6.5899   -1.8002    1.6908 C   0  0  0  0  0
    4.3059   -1.7479    0.9049 C   0  0  0  0  0
    2.4745    3.3621    0.0642 C   0  0  0  0  0
    4.1043   -3.0344    1.4052 C   0  0  0  0  0
    5.5486   -1.1309    1.0478 C   0  0  0  0  0
    3.2174   -1.0481    0.2320 C   0  0  0  0  0
    0.1202    2.2341   -0.1814 C   0  0  0  0  0
    1.6204    2.1966   -0.3774 C   0  0  0  0  0
    0.9551    1.3120    0.6563 C   0  0  0  0  0
    0.8860   -0.1612    0.4455 C   0  0  0  0  0
    2.0574   -0.8196    0.9777 N   0  0  0  0  0
    3.3338   -0.7010   -0.9545 O   0  0  0  0  0
    2.8977   -3.6557    1.2775 O   0  0  0  0  0
    5.7671    0.1259    0.5674 O   0  0  0  0  0
  1  2  1  0  0  0
  3  6  1  0  0  0
  4  7  1  0  0  0
  5 10  1  0  0  0
  8 12  1  0  0  0
  9 11  1  0  0  0
  9 13  1  0  0  0
 11 20  1  0  0  0
 12 21  1  0  0  0
 13 18  1  0  0  0
 14 15  1  0  0  0
 14 16  1  0  0  0
 15 10  1  0  0  0
 15 16  1  0  0  0
 16 17  1  0  0  0
 17 18  1  0  0  0
  1  3  2  0  0  0
  2  5  2  0  0  0
  4  8  2  0  0  0
  6 10  2  0  0  0
  7 11  2  0  0  0
  9 12  2  0  0  0
 13 19  2  0  0  0
M  END
> <rmsd>
0.316812456

$$$$
ZINC92121664


 21 23  0  0  0  0  0  0  0  0999 V2000
   -1.9198    0.9588   -3.7110 C   0  0  0  0  0
   -2.5113    0.9124   -2.4488 C   0  0  0  0  0
   -0.6171    1.4369   -3.8537 C   0  0  0  0  0
    6.3899   -3.0768    2.1946 C   0  0  0  0  0
   -1.8003    1.3440   -1.3290 C   0  0  0  0  0
    0.0939    1.8685   -2.7340 C   0  0  0  0  0
    5.1503   -3.6999    2.0502 C   0  0  0  0  0
    6.5862   -1.7897    1.6940 C   0  0  0  0  0
    4.3032   -1.7487    0.9046 C   0  0  0  0  0
   -0.4977    1.8221   -1.4716 C   0  0  0  0  0
    4.1069   -3.0358    1.4052 C   0  0  0  0  0
    5.5427   -1.1257    1.0491 C   0  0  0  0  0
    3.2124   -1.0544    0.2297 C   0  0  0  0  0
    1.7654    2.1497   -0.2653 C   0  0  0  0  0
    0.2582    2.2821   -0.2819 C   0  0  0  0  0
    0.9383    1.2961    0.6494 C   0  0  0  0  0
    0.8765   -0.1786    0.4391 C   0  0  0  0  0
    2.0502   -0.8312    0.9735 N   0  0  0  0  0
    3.3290   -0.7075   -0.9569 O   0  0  0  0  0
    2.9035   -3.6630    1.2760 O   0  0  0  0  0
    5.7560    0.1319    0.5683 O   0  0  0  0  0
  1  2  1  0  0  0
  3  6  1  0  0  0
  4  7  1  0  0  0
  5 10  1  0  0  0
  8 12  1  0  0  0
  9 11  1  0  0  0
  9 13  1  0  0  0
 11 20  1  0  0  0
 12 21  1  0  0  0
 13 18  1  0  0  0
 14 15  1  0  0  0
 14 16  1  0  0  0
 15 10  1  0  0  0
 15 16  1  0  0  0
 16 17  1  0  0  0
 17 18  1  0  0  0
  1  3  2  0  0  0
  2  5  2  0  0  0
  4  8  2  0  0  0
  6 10  2  0  0  0
  7 11  2  0  0  0
  9 12  2  0  0  0
 13 19  2  0  0  0
M  END
> <rmsd>
0.339230388

$$$$
ZINC92125332


 21 22  0  0  0  0  0  0  0  0999 V2000
    2.0063    3.1615    2.7711 C   0  0  0  0  0
    6.4669   -3.1486    2.1658 C   0  0  0  0  0
    1.4818    3.2375    1.4808 C   0  0  0  0  0
    1.8491    1.9955    3.5204 C   0  0  0  0  0
    5.2328   -3.7902    2.0607 C   0  0  0  0  0
    6.6367   -1.8712    1.6319 C   0  0  0  0  0
    4.3382   -1.8768    0.8875 C   0  0  0  0  0
    0.8000    2.1475    0.9398 C   0  0  0  0  0
    1.1672    0.9055    2.9794 C   0  0  0  0  0
    0.6427    0.9814    1.6891 C   0  0  0  0  0
    4.1685   -3.1543    1.4216 C   0  0  0  0  0
    5.5723   -1.2354    0.9928 C   0  0  0  0  0
    3.2256   -1.2121    0.2187 C   0  0  0  0  0
    0.2483    2.2546   -0.4443 C   0  0  0  0  0
    1.0129   -0.3315    3.8025 C   0  0  0  0  0
   -0.0949   -0.1977    1.1039 C   0  0  0  0  0
    0.7368   -0.9754    0.0869 C   0  0  0  0  0
    1.9396   -1.5318    0.6636 N   0  0  0  0  0
    3.4374   -0.4195   -0.7134 O   0  0  0  0  0
    2.9709   -3.7991    1.3310 O   0  0  0  0  0
    5.7599    0.0131    0.4789 O   0  0  0  0  0
  1  4  1  0  0  0
  2  5  1  0  0  0
  3  8  1  0  0  0
  6 12  1  0  0  0
  7 11  1  0  0  0
  7 13  1  0  0  0
  9 10  1  0  0  0
 11 20  1  0  0  0
 12 21  1  0  0  0
 13 18  1  0  0  0
 14  8  1  0  0  0
 15  9  1  0  0  0
 16 10  1  0  0  0
 16 17  1  0  0  0
 17 18  1  0  0  0
  1  3  2  0  0  0
  2  6  2  0  0  0
  4  9  2  0  0  0
  5 11  2  0  0  0
  7 12  2  0  0  0
  8 10  2  0  0  0
 13 19  2  0  0  0
M  END
> <rmsd>
0.425201803

$$$$
ZINC92122637


 21 22  0  0  0  0  0  0  0  0999 V2000
    6.3950   -3.1788    2.1658 C   0  0  0  0  0
    2.3089    2.7374    4.0663 C   0  0  0  0  0
    0.1128    1.7763    4.3676 C   0  0  0  0  0
    2.2571    2.4296    2.7068 C   0  0  0  0  0
    0.0610    1.4686    3.0080 C   0  0  0  0  0
    5.1306   -3.7528    2.0330 C   0  0  0  0  0
    6.6353   -1.8979    1.6684 C   0  0  0  0  0
    4.3469   -1.7650    0.9052 C   0  0  0  0  0
    1.2368    2.4106    4.8968 C   0  0  0  0  0
    1.1331    1.7954    2.1777 C   0  0  0  0  0
    4.1066   -3.0459    1.4027 C   0  0  0  0  0
    5.6112   -1.1911    1.0381 C   0  0  0  0  0
    3.2564   -1.0123    0.2332 C   0  0  0  0  0
    1.2914    2.7392    6.3503 C   0  0  0  0  0
   -0.0626    2.2263    0.0077 C   0  0  0  0  0
    0.9780   -0.0628    0.4845 C   0  0  0  0  0
    1.0766    1.4616    0.6943 C   0  0  0  0  0
    2.1438   -0.7687    1.0086 N   0  0  0  0  0
    3.3930   -0.6785   -0.9408 O   0  0  0  0  0
    2.8783   -3.6255    1.2847 O   0  0  0  0  0
    5.8676    0.0594    0.5601 O   0  0  0  0  0
  1  6  1  0  0  0
  2  9  1  0  0  0
  3  5  1  0  0  0
  4 10  1  0  0  0
  7 12  1  0  0  0
  8 11  1  0  0  0
  8 13  1  0  0  0
 11 20  1  0  0  0
 12 21  1  0  0  0
 13 18  1  0  0  0
 14  9  1  0  0  0
 15 17  1  0  0  0
 16 17  1  0  0  0
 16 18  1  0  0  0
 17 10  1  0  0  0
  1  7  2  0  0  0
  2  4  2  0  0  0
  3  9  2  0  0  0
  5 10  2  0  0  0
  6 11  2  0  0  0
  8 12  2  0  0  0
 13 19  2  0  0  0
M  END
> <rmsd>
0.361096472

$$$$
ZINC92122853


 21 22  0  0  0  0  0  0  0  0999 V2000
    0.1126    1.7738    4.3673 C   0  0  0  0  0
    6.3950   -3.1783    2.1657 C   0  0  0  0  0
    1.2359    2.4086    4.8972 C   0  0  0  0  0
    0.0612    1.4673    3.0074 C   0  0  0  0  0
    5.1306   -3.7523    2.0329 C   0  0  0  0  0
    6.6353   -1.8974    1.6682 C   0  0  0  0  0
    2.2564    2.4306    2.7074 C   0  0  0  0  0
    4.3469   -1.7645    0.9050 C   0  0  0  0  0
    2.3078    2.7370    4.0672 C   0  0  0  0  0
    1.1331    1.7958    2.1775 C   0  0  0  0  0
    4.1066   -3.0454    1.4025 C   0  0  0  0  0
    5.6112   -1.1906    1.0379 C   0  0  0  0  0
    3.2564   -1.0118    0.2331 C   0  0  0  0  0
    3.5092    3.4145    4.6348 C   0  0  0  0  0
   -0.0626    2.2268    0.0075 C   0  0  0  0  0
    0.9780   -0.0624    0.4843 C   0  0  0  0  0
    1.0766    1.4621    0.6941 C   0  0  0  0  0
    2.1438   -0.7682    1.0084 N   0  0  0  0  0
    3.3930   -0.6780   -0.9410 O   0  0  0  0  0
    2.8783   -3.6250    1.2845 O   0  0  0  0  0
    5.8675    0.0599    0.5599 O   0  0  0  0  0
  1  4  1  0  0  0
  2  5  1  0  0  0
  3  9  1  0  0  0
  6 12  1  0  0  0
  7 10  1  0  0  0
  8 11  1  0  0  0
  8 13  1  0  0  0
 11 20  1  0  0  0
 12 21  1  0  0  0
 13 18  1  0  0  0
 14  9  1  0  0  0
 15 17  1  0  0  0
 16 17  1  0  0  0
 16 18  1  0  0  0
 17 10  1  0  0  0
  1  3  2  0  0  0
  2  6  2  0  0  0
  4 10  2  0  0  0
  5 11  2  0  0  0
  7  9  2  0  0  0
  8 12  2  0  0  0
 13 19  2  0  0  0
M  END
> <rmsd>
0.361096501

$$$$
ZINC92122853


 21 22  0  0  0  0  0  0  0  0999 V2000
    2.3085    2.7351    4.0672 C   0  0  0  0  0
    6.3946   -3.1787    2.1657 C   0  0  0  0  0
    1.2370    2.4063    4.8974 C   0  0  0  0  0
    2.2565    2.4298    2.7071 C   0  0  0  0  0
    5.1303   -3.7527    2.0328 C   0  0  0  0  0
    6.6350   -1.8978    1.6683 C   0  0  0  0  0
    0.0612    1.4666    3.0075 C   0  0  0  0  0
    4.3466   -1.7649    0.9049 C   0  0  0  0  0
    0.1133    1.7720    4.3675 C   0  0  0  0  0
    1.1328    1.7955    2.1773 C   0  0  0  0  0
    4.1063   -3.0458    1.4023 C   0  0  0  0  0
    5.6109   -1.1910    1.0379 C   0  0  0  0  0
    3.2562   -1.0121    0.2329 C   0  0  0  0  0
   -1.0327    1.4221    5.2556 C   0  0  0  0  0
   -0.0627    2.2266    0.0072 C   0  0  0  0  0
    0.9778   -0.0626    0.4841 C   0  0  0  0  0
    1.0764    1.4618    0.6939 C   0  0  0  0  0
    2.1435   -0.7685    1.0082 N   0  0  0  0  0
    3.3929   -0.6783   -0.9411 O   0  0  0  0  0
    2.8780   -3.6253    1.2842 O   0  0  0  0  0
    5.8673    0.0595    0.5600 O   0  0  0  0  0
  1  4  1  0  0  0
  2  5  1  0  0  0
  3  9  1  0  0  0
  6 12  1  0  0  0
  7 10  1  0  0  0
  8 11  1  0  0  0
  8 13  1  0  0  0
 11 20  1  0  0  0
 12 21  1  0  0  0
 13 18  1  0  0  0
 14  9  1  0  0  0
 15 17  1  0  0  0
 16 17  1  0  0  0
 16 18  1  0  0  0
 17 10  1  0  0  0
  1  3  2  0  0  0
  2  6  2  0  0  0
  4 10  2  0  0  0
  5 11  2  0  0  0
  7  9  2  0  0  0
  8 12  2  0  0  0
 13 19  2  0  0  0
M  END
> <rmsd>
0.360925823

$$$$
ZINC92122637


 21 22  0  0  0  0  0  0  0  0999 V2000
    6.2675   -2.8698    2.4874 C   0  0  0  0  0
   -3.3949    1.6399    0.7754 C   0  0  0  0  0
   -2.6480    1.8101   -1.5160 C   0  0  0  0  0
   -2.0927    1.3428    1.1777 C   0  0  0  0  0
   -1.3459    1.5132   -1.1137 C   0  0  0  0  0
    5.0732   -3.5580    2.2739 C   0  0  0  0  0
    6.4591   -1.6116    1.9165 C   0  0  0  0  0
    4.2622   -1.7298    0.9185 C   0  0  0  0  0
   -3.6725    1.8735   -0.5715 C   0  0  0  0  0
   -1.0683    1.2796    0.2332 C   0  0  0  0  0
    4.0705   -2.9879    1.4895 C   0  0  0  0  0
    5.4565   -1.0416    1.1320 C   0  0  0  0  0
    3.1946   -1.1228    0.0824 C   0  0  0  0  0
   -5.0644    2.1911   -1.0025 C   0  0  0  0  0
    1.2912    2.1361    0.3861 C   0  0  0  0  0
    0.8354   -0.3566    0.0266 C   0  0  0  0  0
    0.3522    0.9572    0.6731 C   0  0  0  0  0
    1.9898   -0.9210    0.7199 N   0  0  0  0  0
    3.4295   -0.8626   -1.0947 O   0  0  0  0  0
    2.9108   -3.6775    1.2947 O   0  0  0  0  0
    5.6644    0.1891    0.5844 O   0  0  0  0  0
  1  6  1  0  0  0
  2  9  1  0  0  0
  3  5  1  0  0  0
  4 10  1  0  0  0
  7 12  1  0  0  0
  8 11  1  0  0  0
  8 13  1  0  0  0
 11 20  1  0  0  0
 12 21  1  0  0  0
 13 18  1  0  0  0
 14  9  1  0  0  0
 15 17  1  0  0  0
 16 17  1  0  0  0
 16 18  1  0  0  0
 17 10  1  0  0  0
  1  7  2  0  0  0
  2  4  2  0  0  0
  3  9  2  0  0  0
  5 10  2  0  0  0
  6 11  2  0  0  0
  8 12  2  0  0  0
 13 19  2  0  0  0
M  END
> <rmsd>
0.416894466

$$$$
ZINC92103523


 21 22  0  0  0  0  0  0  0  0999 V2000
   -3.7824    1.5460   -0.6375 C   0  0  0  0  0
   -3.3321    1.9513    0.6188 C   0  0  0  0  0
   -2.9094    0.9087   -1.5192 C   0  0  0  0  0
    6.2680   -2.8192    2.5634 C   0  0  0  0  0
   -2.0087    1.7193    0.9936 C   0  0  0  0  0
   -1.5859    0.6767   -1.1444 C   0  0  0  0  0
    5.0968   -3.5401    2.3309 C   0  0  0  0  0
    6.4445   -1.5667    1.9753 C   0  0  0  0  0
    4.2784   -1.7561    0.9221 C   0  0  0  0  0
   -1.1356    1.0821    0.1119 C   0  0  0  0  0
    4.1019   -3.0085    1.5102 C   0  0  0  0  0
    5.4497   -1.0352    1.1545 C   0  0  0  0  0
    3.2192   -1.1900    0.0475 C   0  0  0  0  0
    0.8453    3.3217    0.7693 C   0  0  0  0  0
    1.2468    1.9943    0.1371 C   0  0  0  0  0
    0.8447   -0.4826   -0.0839 C   0  0  0  0  0
    0.3086    0.8289    0.5201 C   0  0  0  0  0
    1.9775   -0.9995    0.6393 N   0  0  0  0  0
    3.4791   -0.9446   -1.1276 O   0  0  0  0  0
    2.9648   -3.7297    1.2974 O   0  0  0  0  0
    5.6424    0.1907    0.5906 O   0  0  0  0  0
  1  2  1  0  0  0
  3  6  1  0  0  0
  4  7  1  0  0  0
  5 10  1  0  0  0
  8 12  1  0  0  0
  9 11  1  0  0  0
  9 13  1  0  0  0
 11 20  1  0  0  0
 12 21  1  0  0  0
 13 18  1  0  0  0
 14 15  1  0  0  0
 15 17  1  0  0  0
 16 17  1  0  0  0
 16 18  1  0  0  0
 17 10  1  0  0  0
  1  3  2  0  0  0
  2  5  2  0  0  0
  4  8  2  0  0  0
  6 10  2  0  0  0
  7 11  2  0  0  0
  9 12  2  0  0  0
 13 19  2  0  0  0
M  END
> <rmsd>
0.394961268

$$$$
ZINC92119287


 21 22  0  0  0  0  0  0  0  0999 V2000
    3.7242    3.7353    1.6514 C   0  0  0  0  0
    3.7287    2.6880    2.5726 C   0  0  0  0  0
    6.6072   -3.1491    1.9818 C   0  0  0  0  0
    2.6966    3.8347    0.7134 C   0  0  0  0  0
    2.7057    1.7401    2.5559 C   0  0  0  0  0
    5.3877   -3.8180    1.8779 C   0  0  0  0  0
    6.7191   -1.8302    1.5416 C   0  0  0  0  0
    4.3918   -1.8493    0.8932 C   0  0  0  0  0
    1.6735    2.8868    0.6966 C   0  0  0  0  0
    1.6780    1.8394    1.6179 C   0  0  0  0  0
    4.2800   -3.1681    1.3336 C   0  0  0  0  0
    5.6114   -1.1803    0.9973 C   0  0  0  0  0
    3.2123   -1.1572    0.3128 C   0  0  0  0  0
    0.5829    3.0140   -0.3159 C   0  0  0  0  0
   -0.2311   -1.4603    0.7594 C   0  0  0  0  0
    0.5819    0.8009    1.6188 C   0  0  0  0  0
    0.8808   -0.4118    0.7188 C   0  0  0  0  0
    2.1291   -1.0464    1.1523 N   0  0  0  0  0
    3.2624   -0.7567   -0.8472 O   0  0  0  0  0
    3.0976   -3.8404    1.2423 O   0  0  0  0  0
    5.7426    0.1087    0.5740 O   0  0  0  0  0
  1  2  1  0  0  0
  3  6  1  0  0  0
  4  9  1  0  0  0
  5 10  1  0  0  0
  7 12  1  0  0  0
  8 11  1  0  0  0
  8 13  1  0  0  0
 11 20  1  0  0  0
 12 21  1  0  0  0
 13 18  1  0  0  0
 14  9  1  0  0  0
 15 17  1  0  0  0
 16 10  1  0  0  0
 16 17  1  0  0  0
 17 18  1  0  0  0
  1  4  2  0  0  0
  2  5  2  0  0  0
  3  7  2  0  0  0
  6 11  2  0  0  0
  8 12  2  0  0  0
  9 10  2  0  0  0
 13 19  2  0  0  0
M  END
> <rmsd>
0.481263727

$$$$
ZINC92123848


 21 22  0  0  0  0  0  0  0  0999 V2000
    1.2524    2.5713    4.8642 C   0  0  0  0  0
    2.4198    2.1862    4.2051 C   0  0  0  0  0
    0.0392    2.5967    4.1764 C   0  0  0  0  0
    6.3978   -3.1753    2.1647 C   0  0  0  0  0
    2.3741    1.8267    2.8582 C   0  0  0  0  0
   -0.0066    2.2371    2.8295 C   0  0  0  0  0
    5.1348   -3.7522    2.0318 C   0  0  0  0  0
    6.6349   -1.8936    1.6679 C   0  0  0  0  0
    4.3461   -1.7659    0.9050 C   0  0  0  0  0
    1.1608    1.8521    2.1703 C   0  0  0  0  0
    4.1090   -3.0476    1.4019 C   0  0  0  0  0
    5.6091   -1.1889    1.0381 C   0  0  0  0  0
    3.2538   -1.0155    0.2335 C   0  0  0  0  0
   -0.0231    2.2315    0.0038 C   0  0  0  0  0
   -0.2797   -0.6499    1.1454 C   0  0  0  0  0
    1.1102    1.4602    0.7008 C   0  0  0  0  0
    0.9733   -0.0712    0.4856 C   0  0  0  0  0
    2.1314   -0.7690    1.0050 N   0  0  0  0  0
    3.3894   -0.6807   -0.9405 O   0  0  0  0  0
    2.8822   -3.6300    1.2837 O   0  0  0  0  0
    5.8624    0.0623    0.5606 O   0  0  0  0  0
  1  2  1  0  0  0
  3  6  1  0  0  0
  4  7  1  0  0  0
  5 10  1  0  0  0
  8 12  1  0  0  0
  9 11  1  0  0  0
  9 13  1  0  0  0
 11 20  1  0  0  0
 12 21  1  0  0  0
 13 18  1  0  0  0
 14 16  1  0  0  0
 15 17  1  0  0  0
 16 10  1  0  0  0
 16 17  1  0  0  0
 17 18  1  0  0  0
  1  3  2  0  0  0
  2  5  2  0  0  0
  4  8  2  0  0  0
  6 10  2  0  0  0
  7 11  2  0  0  0
  9 12  2  0  0  0
 13 19  2  0  0  0
M  END
> <rmsd>
0.347534448

$$$$
ZINC92123841


 21 22  0  0  0  0  0  0  0  0999 V2000
    3.2936    3.6072    3.4209 C   0  0  0  0  0
    3.6529    3.8182    2.0897 C   0  0  0  0  0
    2.3026    2.6779    3.7370 C   0  0  0  0  0
    6.4628   -3.2458    1.9998 C   0  0  0  0  0
    3.0210    3.0999    1.0746 C   0  0  0  0  0
    1.6708    1.9596    2.7220 C   0  0  0  0  0
    5.1925   -3.8138    1.9035 C   0  0  0  0  0
    6.6819   -1.9459    1.5437 C   0  0  0  0  0
    4.3604   -1.7823    0.8948 C   0  0  0  0  0
    2.0300    2.1705    1.3906 C   0  0  0  0  0
    4.1414   -3.0822    1.3510 C   0  0  0  0  0
    5.6307   -1.2142    0.9911 C   0  0  0  0  0
    3.2412   -1.0031    0.3057 C   0  0  0  0  0
    0.1008    2.1608   -0.1960 C   0  0  0  0  0
    0.3163   -0.8553   -0.4271 C   0  0  0  0  0
    1.3400    1.3867    0.2837 C   0  0  0  0  0
    0.9790   -0.0641    0.7020 C   0  0  0  0  0
    2.1571   -0.7849    1.1382 N   0  0  0  0  0
    3.3231   -0.6221   -0.8590 O   0  0  0  0  0
    2.9078   -3.6565    1.2675 O   0  0  0  0  0
    5.8668    0.0546    0.5525 O   0  0  0  0  0
  1  2  1  0  0  0
  3  6  1  0  0  0
  4  7  1  0  0  0
  5 10  1  0  0  0
  8 12  1  0  0  0
  9 11  1  0  0  0
  9 13  1  0  0  0
 11 20  1  0  0  0
 12 21  1  0  0  0
 13 18  1  0  0  0
 14 16  1  0  0  0
 15 17  1  0  0  0
 16 10  1  0  0  0
 16 17  1  0  0  0
 17 18  1  0  0  0
  1  3  2  0  0  0
  2  5  2  0  0  0
  4  8  2  0  0  0
  6 10  2  0  0  0
  7 11  2  0  0  0
  9 12  2  0  0  0
 13 19  2  0  0  0
M  END
> <rmsd>
0.360611707

$$$$
ZINC92123278


 21 22  0  0  0  0  0  0  0  0999 V2000
    1.5009    4.0349   -2.0240 C   0  0  0  0  0
    6.3423   -2.9380    2.4137 C   0  0  0  0  0
    0.8418    3.9109    0.3277 C   0  0  0  0  0
    5.1411   -3.6192    2.2170 C   0  0  0  0  0
    6.5233   -1.6698    1.8618 C   0  0  0  0  0
    0.5184    3.1613    1.4588 C   0  0  0  0  0
    1.1749    1.8734   -0.9273 C   0  0  0  0  0
    1.1699    3.2670   -0.8653 C   0  0  0  0  0
    4.3021   -1.7641    0.9163 C   0  0  0  0  0
    0.8515    1.1239    0.2037 C   0  0  0  0  0
    4.1210   -3.0323    1.4683 C   0  0  0  0  0
    5.5033   -1.0829    1.1131 C   0  0  0  0  0
    0.5234    1.7678    1.3968 C   0  0  0  0  0
    3.2159   -1.1391    0.1184 C   0  0  0  0  0
    0.8584   -0.3660    0.1355 C   0  0  0  0  0
    1.7697    4.6586   -2.9650 N   0  0  0  0  0
    2.0125   -0.9386    0.7807 N   0  0  0  0  0
    3.4224   -0.8575   -1.0592 O   0  0  0  0  0
    2.9550   -3.7154    1.2894 O   0  0  0  0  0
    5.7010    0.1574    0.5836 O   0  0  0  0  0
    0.2116    1.0562    2.4891 F   0  0  0  0  0
  2  4  1  0  0  0
  3  8  1  0  0  0
  5 12  1  0  0  0
  6 13  1  0  0  0
  7 10  1  0  0  0
  8  1  1  0  0  0
  9 11  1  0  0  0
  9 14  1  0  0  0
 11 19  1  0  0  0
 12 20  1  0  0  0
 13 21  1  0  0  0
 14 17  1  0  0  0
 15 10  1  0  0  0
 15 17  1  0  0  0
  2  5  2  0  0  0
  3  6  2  0  0  0
  4 11  2  0  0  0
  7  8  2  0  0  0
  9 12  2  0  0  0
 10 13  2  0  0  0
 14 18  2  0  0  0
  1 16  3  0  0  0
M  END
> <rmsd>
0.28167522

$$$$
ZINC92123278


 21 22  0  0  0  0  0  0  0  0999 V2000
    0.1762    3.8133    2.6861 C   0  0  0  0  0
    6.3417   -2.9378    2.4145 C   0  0  0  0  0
    0.8363    3.9107    0.3334 C   0  0  0  0  0
    5.1405   -3.6190    2.2175 C   0  0  0  0  0
    6.5230   -1.6696    1.8624 C   0  0  0  0  0
    1.1663    3.2706   -0.8611 C   0  0  0  0  0
    0.5219    1.7642    1.3967 C   0  0  0  0  0
    0.5141    3.1575    1.4624 C   0  0  0  0  0
    4.3020   -1.7640    0.9163 C   0  0  0  0  0
    0.8518    1.1241    0.2022 C   0  0  0  0  0
    4.1207   -3.0321    1.4683 C   0  0  0  0  0
    5.5032   -1.0828    1.1134 C   0  0  0  0  0
    1.1741    1.8773   -0.9268 C   0  0  0  0  0
    3.2161   -1.1390    0.1179 C   0  0  0  0  0
    0.8586   -0.3659    0.1341 C   0  0  0  0  0
   -0.0981    4.3459    3.6800 N   0  0  0  0  0
    2.0125   -0.9384    0.7797 N   0  0  0  0  0
    3.4230   -0.8576   -1.0596 O   0  0  0  0  0
    2.9547   -3.7152    1.2891 O   0  0  0  0  0
    5.7011    0.1575    0.5838 O   0  0  0  0  0
    1.4922    1.2713   -2.0793 F   0  0  0  0  0
  2  4  1  0  0  0
  3  8  1  0  0  0
  5 12  1  0  0  0
  6 13  1  0  0  0
  7 10  1  0  0  0
  8  1  1  0  0  0
  9 11  1  0  0  0
  9 14  1  0  0  0
 11 19  1  0  0  0
 12 20  1  0  0  0
 13 21  1  0  0  0
 14 17  1  0  0  0
 15 10  1  0  0  0
 15 17  1  0  0  0
  2  5  2  0  0  0
  3  6  2  0  0  0
  4 11  2  0  0  0
  7  8  2  0  0  0
  9 12  2  0  0  0
 10 13  2  0  0  0
 14 18  2  0  0  0
  1 16  3  0  0  0
M  END
> <rmsd>
0.281244248

$$$$
ZINC92123723


 21 22  0  0  0  0  0  0  0  0999 V2000
   -3.8134   -0.9940    2.7796 C   0  0  0  0  0
   -2.9501   -0.6079    3.8050 C   0  0  0  0  0
   -3.4417   -0.8081    1.4480 C   0  0  0  0  0
    6.2038   -2.8103    2.5710 C   0  0  0  0  0
   -1.7153   -0.0359    3.4988 C   0  0  0  0  0
   -2.2069   -0.2360    1.1420 C   0  0  0  0  0
    5.0183   -3.5075    2.3384 C   0  0  0  0  0
    6.4078   -1.5640    1.9787 C   0  0  0  0  0
    4.2407   -1.7122    0.9209 C   0  0  0  0  0
   -1.3438    0.1501    2.1673 C   0  0  0  0  0
    4.0367   -2.9584    1.5134 C   0  0  0  0  0
    5.4262   -1.0150    1.1536 C   0  0  0  0  0
    3.1957   -1.1275    0.0416 C   0  0  0  0  0
    1.4044    2.0403    0.5076 C   0  0  0  0  0
    0.8368   -0.3712   -0.0982 C   0  0  0  0  0
    0.3438    0.9438    0.5096 C   0  0  0  0  0
   -0.1195    0.7173    1.8635 N   0  0  0  0  0
    1.9609   -0.9108    0.6324 N   0  0  0  0  0
    3.4634   -0.8919   -1.1336 O   0  0  0  0  0
    2.8854   -3.6565    1.3005 O   0  0  0  0  0
    5.6458    0.2045    0.5855 O   0  0  0  0  0
  1  2  1  0  0  0
  3  6  1  0  0  0
  4  7  1  0  0  0
  5 10  1  0  0  0
  8 12  1  0  0  0
  9 11  1  0  0  0
  9 13  1  0  0  0
 10 17  1  0  0  0
 11 20  1  0  0  0
 12 21  1  0  0  0
 13 18  1  0  0  0
 14 16  1  0  0  0
 15 16  1  0  0  0
 15 18  1  0  0  0
 16 17  1  0  0  0
  1  3  2  0  0  0
  2  5  2  0  0  0
  4  8  2  0  0  0
  6 10  2  0  0  0
  7 11  2  0  0  0
  9 12  2  0  0  0
 13 19  2  0  0  0
M  END
> <rmsd>
0.484987944

$$$$
ZINC92123725


 21 22  0  0  0  0  0  0  0  0999 V2000
    2.9533    5.3193    3.4118 C   0  0  0  0  0
    2.5178    4.3528    4.3184 C   0  0  0  0  0
    2.8238    5.0980    2.0406 C   0  0  0  0  0
    6.3699   -3.1590    2.2135 C   0  0  0  0  0
    1.9528    3.1652    3.8539 C   0  0  0  0  0
    2.2588    3.9103    1.5762 C   0  0  0  0  0
    5.1066   -3.7326    2.0702 C   0  0  0  0  0
    6.6191   -1.8845    1.7040 C   0  0  0  0  0
    4.3416   -1.7577    0.9076 C   0  0  0  0  0
    1.8233    2.9438    2.4827 C   0  0  0  0  0
    4.0925   -3.0320    1.4172 C   0  0  0  0  0
    5.6049   -1.1839    1.0511 C   0  0  0  0  0
    3.2618   -1.0116    0.2116 C   0  0  0  0  0
   -0.1130    2.2195    0.0698 C   0  0  0  0  0
    0.9818   -0.0554    0.4201 C   0  0  0  0  0
    1.0904    1.4583    0.6168 C   0  0  0  0  0
    1.2631    1.7664    2.0218 N   0  0  0  0  0
    2.1272   -0.7495    0.9630 N   0  0  0  0  0
    3.4151   -0.6922   -0.9644 O   0  0  0  0  0
    2.8651   -3.6112    1.2893 O   0  0  0  0  0
    5.8698    0.0603    0.5615 O   0  0  0  0  0
  1  2  1  0  0  0
  3  6  1  0  0  0
  4  7  1  0  0  0
  5 10  1  0  0  0
  8 12  1  0  0  0
  9 11  1  0  0  0
  9 13  1  0  0  0
 10 17  1  0  0  0
 11 20  1  0  0  0
 12 21  1  0  0  0
 13 18  1  0  0  0
 14 16  1  0  0  0
 15 16  1  0  0  0
 15 18  1  0  0  0
 16 17  1  0  0  0
  1  3  2  0  0  0
  2  5  2  0  0  0
  4  8  2  0  0  0
  6 10  2  0  0  0
  7 11  2  0  0  0
  9 12  2  0  0  0
 13 19  2  0  0  0
M  END
> <rmsd>
0.372518212

$$$$
ZINC67846777


 21 22  0  0  0  0  0  0  0  0999 V2000
    6.6068   -3.1500    1.9811 C   0  0  0  0  0
    3.7018    3.6718    1.6894 C   0  0  0  0  0
    2.6948    3.8039    0.7398 C   0  0  0  0  0
    5.3869   -3.8184    1.8780 C   0  0  0  0  0
    6.7190   -1.8311    1.5410 C   0  0  0  0  0
    3.6293    2.6021    2.5671 C   0  0  0  0  0
    4.3914   -1.8491    0.8939 C   0  0  0  0  0
    1.6608    2.8753    0.6974 C   0  0  0  0  0
    4.2792   -3.1680    1.3343 C   0  0  0  0  0
    5.6113   -1.1808    0.9973 C   0  0  0  0  0
    1.6798    1.8411    1.6193 C   0  0  0  0  0
    3.2121   -1.1562    0.3138 C   0  0  0  0  0
    0.5786    3.0112   -0.3174 C   0  0  0  0  0
   -0.2313   -1.4574    0.7608 C   0  0  0  0  0
    0.5831    0.8033    1.6203 C   0  0  0  0  0
    0.8812   -0.4096    0.7201 C   0  0  0  0  0
    2.6408    1.6800    2.5565 N   0  0  0  0  0
    2.1292   -1.0449    1.1534 N   0  0  0  0  0
    3.2624   -0.7557   -0.8462 O   0  0  0  0  0
    3.0967   -3.8401    1.2423 O   0  0  0  0  0
    5.7432    0.1080    0.5736 O   0  0  0  0  0
  1  4  1  0  0  0
  2  6  1  0  0  0
  3  8  1  0  0  0
  5 10  1  0  0  0
  7  9  1  0  0  0
  7 12  1  0  0  0
  9 20  1  0  0  0
 10 21  1  0  0  0
 11 17  1  0  0  0
 12 18  1  0  0  0
 13  8  1  0  0  0
 14 16  1  0  0  0
 15 11  1  0  0  0
 15 16  1  0  0  0
 16 18  1  0  0  0
  1  5  2  0  0  0
  2  3  2  0  0  0
  4  9  2  0  0  0
  6 17  2  0  0  0
  7 10  2  0  0  0
  8 11  2  0  0  0
 12 19  2  0  0  0
M  END
> <rmsd>
0.480320662

$$$$
ZINC92106477


 21 22  0  0  0  0  0  0  0  0999 V2000
   -0.1062    2.0122    4.9163 C   0  0  0  0  0
   -1.1017    1.9517    3.9412 C   0  0  0  0  0
    1.2244    1.7764    4.5703 C   0  0  0  0  0
    6.5630   -3.1169    2.0977 C   0  0  0  0  0
   -0.7667    1.6552    2.6201 C   0  0  0  0  0
    1.5594    1.4798    3.2491 C   0  0  0  0  0
    5.3468   -3.7877    1.9693 C   0  0  0  0  0
    6.6917   -1.8099    1.6280 C   0  0  0  0  0
    4.3879   -1.8443    0.9012 C   0  0  0  0  0
    0.5638    1.4193    2.2740 C   0  0  0  0  0
    4.2592   -3.1514    1.3710 C   0  0  0  0  0
    5.6042   -1.1736    1.0297 C   0  0  0  0  0
    3.2509   -1.1789    0.2751 C   0  0  0  0  0
    0.3531    3.1345   -0.1794 C   0  0  0  0  0
    0.8875   -0.4083    0.5709 C   0  0  0  0  0
    0.9274    1.0976    0.8426 C   0  0  0  0  0
    2.1015   -1.0247    1.0555 N   0  0  0  0  0
    3.3199   -0.7961   -0.9041 O   0  0  0  0  0
    3.0797   -3.8251    1.2567 O   0  0  0  0  0
    5.7515    0.1042    0.5784 O   0  0  0  0  0
    0.0066    1.7681   -0.0185 O   0  0  0  0  0
  1  2  1  0  0  0
  3  6  1  0  0  0
  4  7  1  0  0  0
  5 10  1  0  0  0
  8 12  1  0  0  0
  9 11  1  0  0  0
  9 13  1  0  0  0
 11 19  1  0  0  0
 12 20  1  0  0  0
 13 17  1  0  0  0
 14 21  1  0  0  0
 15 16  1  0  0  0
 15 17  1  0  0  0
 16 10  1  0  0  0
 16 21  1  0  0  0
  1  3  2  0  0  0
  2  5  2  0  0  0
  4  8  2  0  0  0
  6 10  2  0  0  0
  7 11  2  0  0  0
  9 12  2  0  0  0
 13 18  2  0  0  0
M  END
> <rmsd>
0.494325608

$$$$
ZINC92124665


 21 22  0  0  0  0  0  0  0  0999 V2000
    6.3402   -2.9345    2.4186 C   0  0  0  0  0
    1.1826    3.2704   -0.8581 C   0  0  0  0  0
    1.1843    1.8769   -0.9181 C   0  0  0  0  0
    5.1401   -3.6170    2.2208 C   0  0  0  0  0
    6.5210   -1.6668    1.8656 C   0  0  0  0  0
    0.5172    3.1699    1.4623 C   0  0  0  0  0
    4.3014   -1.7643    0.9166 C   0  0  0  0  0
    0.8491    3.9169    0.3321 C   0  0  0  0  0
    0.8524    1.1298    0.2121 C   0  0  0  0  0
    4.1206   -3.0319    1.4697 C   0  0  0  0  0
    5.5016   -1.0817    1.1145 C   0  0  0  0  0
    0.5189    1.7763    1.4023 C   0  0  0  0  0
    3.2358   -1.1525    0.1306 C   0  0  0  0  0
    0.8482    5.4070    0.3960 C   0  0  0  0  0
   -0.1344    1.8034    3.6889 C   0  0  0  0  0
    0.8580   -0.3692    0.1285 C   0  0  0  0  0
    2.0148   -0.9428    0.7780 N   0  0  0  0  0
    3.4242   -0.8607   -1.0614 O   0  0  0  0  0
    2.9555   -3.7163    1.2897 O   0  0  0  0  0
    5.6991    0.1583    0.5838 O   0  0  0  0  0
    0.1933    1.0616    2.5157 O   0  0  0  0  0
  1  4  1  0  0  0
  2  8  1  0  0  0
  3  9  1  0  0  0
  5 11  1  0  0  0
  6 12  1  0  0  0
  7 10  1  0  0  0
  7 13  1  0  0  0
 10 19  1  0  0  0
 11 20  1  0  0  0
 12 21  1  0  0  0
 13 17  1  0  0  0
 14  8  1  0  0  0
 15 21  1  0  0  0
 16  9  1  0  0  0
 16 17  1  0  0  0
  1  5  2  0  0  0
  2  3  2  0  0  0
  4 10  2  0  0  0
  6  8  2  0  0  0
  7 11  2  0  0  0
  9 12  2  0  0  0
 13 18  2  0  0  0
M  END
> <rmsd>
0.284327805

$$$$
ZINC92124665


 21 22  0  0  0  0  0  0  0  0999 V2000
    6.3336   -2.9291    2.4288 C   0  0  0  0  0
    0.5036    3.1395    1.4883 C   0  0  0  0  0
    0.5126    1.7476    1.3967 C   0  0  0  0  0
    5.1340   -3.6120    2.2287 C   0  0  0  0  0
    6.5164   -1.6628    1.8732 C   0  0  0  0  0
    1.1765    3.2963   -0.8268 C   0  0  0  0  0
    4.2999   -1.7625    0.9169 C   0  0  0  0  0
    0.8354    3.9138    0.3766 C   0  0  0  0  0
    0.8537    1.1301    0.1934 C   0  0  0  0  0
    4.1171   -3.0287    1.4727 C   0  0  0  0  0
    5.4995   -1.0795    1.1171 C   0  0  0  0  0
    1.1856    1.9044   -0.9184 C   0  0  0  0  0
    3.2371   -1.1526    0.1258 C   0  0  0  0  0
    0.8250    5.4019    0.4748 C   0  0  0  0  0
    1.8453    2.1845   -3.1860 C   0  0  0  0  0
    0.8594   -0.3692    0.1137 C   0  0  0  0  0
    2.0139   -0.9412    0.7685 N   0  0  0  0  0
    3.4295   -0.8640   -1.0663 O   0  0  0  0  0
    2.9526   -3.7135    1.2905 O   0  0  0  0  0
    5.6990    0.1590    0.5840 O   0  0  0  0  0
    1.5200    1.3173   -2.1016 O   0  0  0  0  0
  1  4  1  0  0  0
  2  8  1  0  0  0
  3  9  1  0  0  0
  5 11  1  0  0  0
  6 12  1  0  0  0
  7 10  1  0  0  0
  7 13  1  0  0  0
 10 19  1  0  0  0
 11 20  1  0  0  0
 12 21  1  0  0  0
 13 17  1  0  0  0
 14  8  1  0  0  0
 15 21  1  0  0  0
 16  9  1  0  0  0
 16 17  1  0  0  0
  1  5  2  0  0  0
  2  3  2  0  0  0
  4 10  2  0  0  0
  6  8  2  0  0  0
  7 11  2  0  0  0
  9 12  2  0  0  0
 13 18  2  0  0  0
M  END
> <rmsd>
0.283877671

$$$$
ZINC92121940


 21 22  0  0  0  0  0  0  0  0999 V2000
    4.6743    3.5376    3.4052 C   0  0  0  0  0
    3.8662    4.1809    2.4678 C   0  0  0  0  0
    4.3197    2.2758    3.8827 C   0  0  0  0  0
    6.3680   -3.1543    2.2157 C   0  0  0  0  0
    2.7035    3.5626    2.0079 C   0  0  0  0  0
    3.1570    1.6575    3.4228 C   0  0  0  0  0
    5.1058   -3.7299    2.0715 C   0  0  0  0  0
    6.6158   -1.8798    1.7056 C   0  0  0  0  0
    4.3388   -1.7568    0.9072 C   0  0  0  0  0
    2.3489    2.3008    2.4854 C   0  0  0  0  0
    4.0911   -3.0313    1.4173 C   0  0  0  0  0
    5.6011   -1.1811    1.0514 C   0  0  0  0  0
    3.2585   -1.0128    0.2098 C   0  0  0  0  0
   -0.0665    2.2034    0.0712 C   0  0  0  0  0
    0.9768   -0.0600    0.4156 C   0  0  0  0  0
    1.1270    1.4434    0.6341 C   0  0  0  0  0
    2.1231   -0.7523    0.9601 N   0  0  0  0  0
    3.4123   -0.6937   -0.9663 O   0  0  0  0  0
    2.8648   -3.6125    1.2884 O   0  0  0  0  0
    5.8646    0.0632    0.5615 O   0  0  0  0  0
    1.2077    1.6945    2.0358 O   0  0  0  0  0
  1  2  1  0  0  0
  3  6  1  0  0  0
  4  7  1  0  0  0
  5 10  1  0  0  0
  8 12  1  0  0  0
  9 11  1  0  0  0
  9 13  1  0  0  0
 10 21  1  0  0  0
 11 19  1  0  0  0
 12 20  1  0  0  0
 13 17  1  0  0  0
 14 16  1  0  0  0
 15 16  1  0  0  0
 15 17  1  0  0  0
 16 21  1  0  0  0
  1  3  2  0  0  0
  2  5  2  0  0  0
  4  8  2  0  0  0
  6 10  2  0  0  0
  7 11  2  0  0  0
  9 12  2  0  0  0
 13 18  2  0  0  0
M  END
> <rmsd>
0.3554717

$$$$
ZINC92121940


 21 22  0  0  0  0  0  0  0  0999 V2000
    3.4386    5.0018    3.2089 C   0  0  0  0  0
    4.0452    3.9699    2.4928 C   0  0  0  0  0
    2.0839    4.9239    3.5321 C   0  0  0  0  0
    6.3684   -3.1540    2.2152 C   0  0  0  0  0
    3.2971    2.8601    2.0997 C   0  0  0  0  0
    1.3358    3.8141    3.1389 C   0  0  0  0  0
    5.1062   -3.7297    2.0710 C   0  0  0  0  0
    6.6160   -1.8795    1.7052 C   0  0  0  0  0
    4.3390   -1.7565    0.9069 C   0  0  0  0  0
    1.9424    2.7822    2.4228 C   0  0  0  0  0
    4.0914   -3.0310    1.4170 C   0  0  0  0  0
    5.6013   -1.1807    1.0511 C   0  0  0  0  0
    3.2586   -1.0125    0.2097 C   0  0  0  0  0
   -0.0666    2.2035    0.0715 C   0  0  0  0  0
    0.9769   -0.0598    0.4157 C   0  0  0  0  0
    1.1270    1.4436    0.6343 C   0  0  0  0  0
    2.1233   -0.7521    0.9601 N   0  0  0  0  0
    3.4123   -0.6934   -0.9664 O   0  0  0  0  0
    2.8651   -3.6123    1.2881 O   0  0  0  0  0
    5.8647    0.0636    0.5612 O   0  0  0  0  0
    1.2078    1.6946    2.0360 O   0  0  0  0  0
  1  2  1  0  0  0
  3  6  1  0  0  0
  4  7  1  0  0  0
  5 10  1  0  0  0
  8 12  1  0  0  0
  9 11  1  0  0  0
  9 13  1  0  0  0
 10 21  1  0  0  0
 11 19  1  0  0  0
 12 20  1  0  0  0
 13 17  1  0  0  0
 14 16  1  0  0  0
 15 16  1  0  0  0
 15 17  1  0  0  0
 16 21  1  0  0  0
  1  3  2  0  0  0
  2  5  2  0  0  0
  4  8  2  0  0  0
  6 10  2  0  0  0
  7 11  2  0  0  0
  9 12  2  0  0  0
 13 18  2  0  0  0
M  END
> <rmsd>
0.355640352

$$$$
ZINC67868292


 21 23  0  0  0  0  0  0  0  0999 V2000
    6.3891   -3.0937    2.1825 C   0  0  0  0  0
    5.1444   -3.7076    2.0421 C   0  0  0  0  0
    6.5922   -1.8068    1.6841 C   0  0  0  0  0
   -1.2161    0.3864    4.4403 C   0  0  0  0  0
   -1.8280    1.5222    3.8769 C   0  0  0  0  0
    0.0119    0.3191    3.8290 C   0  0  0  0  0
    4.3061   -1.7477    0.9049 C   0  0  0  0  0
    4.1030   -3.0346    1.4033 C   0  0  0  0  0
    5.5507   -1.1339    1.0454 C   0  0  0  0  0
    3.2177   -1.0440    0.2359 C   0  0  0  0  0
    0.1048    2.1997   -0.1932 C   0  0  0  0  0
    1.5894    2.1571   -0.4073 C   0  0  0  0  0
    0.9623    1.3219    0.6702 C   0  0  0  0  0
    1.1772    1.7325    2.0847 C   0  0  0  0  0
    0.8891   -0.1518    0.4566 C   0  0  0  0  0
   -1.0523    2.1327    2.9769 N   0  0  0  0  0
    0.0595    1.3776    2.9703 N   0  0  0  0  0
    2.0601   -0.8141    0.9848 N   0  0  0  0  0
    3.3321   -0.6950   -0.9502 O   0  0  0  0  0
    2.8949   -3.6534    1.2766 O   0  0  0  0  0
    5.7711    0.1230    0.5661 O   0  0  0  0  0
  1  2  1  0  0  0
  3  9  1  0  0  0
  4  5  1  0  0  0
  6 17  1  0  0  0
  7  8  1  0  0  0
  7 10  1  0  0  0
  8 20  1  0  0  0
  9 21  1  0  0  0
 10 18  1  0  0  0
 11 12  1  0  0  0
 11 13  1  0  0  0
 12 13  1  0  0  0
 13 14  1  0  0  0
 13 15  1  0  0  0
 14 17  1  0  0  0
 15 18  1  0  0  0
 17 16  1  0  0  0
  1  3  2  0  0  0
  2  8  2  0  0  0
  4  6  2  0  0  0
  5 16  2  0  0  0
  7  9  2  0  0  0
 10 19  2  0  0  0
M  END
> <rmsd>
0.320010751

$$$$
ZINC67868292


 21 23  0  0  0  0  0  0  0  0999 V2000
    6.3892   -3.0933    2.1827 C   0  0  0  0  0
    5.1445   -3.7072    2.0423 C   0  0  0  0  0
    6.5923   -1.8064    1.6843 C   0  0  0  0  0
   -1.8526    1.3571    4.0261 C   0  0  0  0  0
   -1.0148    0.2930    4.4105 C   0  0  0  0  0
   -1.1241    2.0457    3.0872 C   0  0  0  0  0
    4.3062   -1.7473    0.9051 C   0  0  0  0  0
    4.1031   -3.0342    1.4035 C   0  0  0  0  0
    5.5508   -1.1334    1.0456 C   0  0  0  0  0
    3.2178   -1.0435    0.2361 C   0  0  0  0  0
    0.1049    2.2002   -0.1930 C   0  0  0  0  0
    1.5895    2.1576   -0.4071 C   0  0  0  0  0
    0.9623    1.3223    0.6704 C   0  0  0  0  0
    1.1773    1.7330    2.0849 C   0  0  0  0  0
    0.8892   -0.1514    0.4568 C   0  0  0  0  0
    0.1563    0.3008    3.7681 N   0  0  0  0  0
    0.0595    1.3780    2.9705 N   0  0  0  0  0
    2.0601   -0.8136    0.9850 N   0  0  0  0  0
    3.3322   -0.6946   -0.9500 O   0  0  0  0  0
    2.8950   -3.6530    1.2768 O   0  0  0  0  0
    5.7712    0.1234    0.5663 O   0  0  0  0  0
  1  2  1  0  0  0
  3  9  1  0  0  0
  4  5  1  0  0  0
  6 17  1  0  0  0
  7  8  1  0  0  0
  7 10  1  0  0  0
  8 20  1  0  0  0
  9 21  1  0  0  0
 10 18  1  0  0  0
 11 12  1  0  0  0
 11 13  1  0  0  0
 12 13  1  0  0  0
 13 14  1  0  0  0
 13 15  1  0  0  0
 14 17  1  0  0  0
 15 18  1  0  0  0
 17 16  1  0  0  0
  1  3  2  0  0  0
  2  8  2  0  0  0
  4  6  2  0  0  0
  5 16  2  0  0  0
  7  9  2  0  0  0
 10 19  2  0  0  0
M  END
> <rmsd>
0.320010841

$$$$
ZINC92121990


 21 23  0  0  0  0  0  0  0  0999 V2000
    6.3752   -3.2318    2.1043 C   0  0  0  0  0
    5.0950   -3.7738    1.9914 C   0  0  0  0  0
    6.6369   -1.9526    1.6135 C   0  0  0  0  0
    4.3380   -1.7575    0.8964 C   0  0  0  0  0
    4.0765   -3.0367    1.3874 C   0  0  0  0  0
    5.6184   -1.2155    1.0095 C   0  0  0  0  0
   -0.9190    3.4399   -0.1753 C   0  0  0  0  0
    0.4018    3.2773   -0.3278 C   0  0  0  0  0
    3.2665   -0.9818    0.2602 C   0  0  0  0  0
   -1.8485    2.3153    0.1650 C   0  0  0  0  0
    1.0931    1.9556   -0.1531 C   0  0  0  0  0
   -1.1961    0.9330    0.0463 C   0  0  0  0  0
    1.5733    0.8789    2.8253 C   0  0  0  0  0
    0.2313    1.1614    2.1406 C   0  0  0  0  0
    2.0965   -0.5079    2.4730 C   0  0  0  0  0
    0.8384   -0.5193    0.3562 C   0  0  0  0  0
    0.2485    0.8913    0.6063 C   0  0  0  0  0
    2.1327   -0.6820    1.0182 N   0  0  0  0  0
    3.4610   -0.6409   -0.9054 O   0  0  0  0  0
    2.8324   -3.5853    1.2884 O   0  0  0  0  0
    5.8958    0.0327    0.5374 O   0  0  0  0  0
  1  2  1  0  0  0
  3  6  1  0  0  0
  4  5  1  0  0  0
  4  9  1  0  0  0
  5 20  1  0  0  0
  6 21  1  0  0  0
  9 18  1  0  0  0
 10  7  1  0  0  0
 10 12  1  0  0  0
 11  8  1  0  0  0
 11 17  1  0  0  0
 12 17  1  0  0  0
 13 14  1  0  0  0
 13 15  1  0  0  0
 14 17  1  0  0  0
 15 18  1  0  0  0
 16 17  1  0  0  0
 16 18  1  0  0  0
  1  3  2  0  0  0
  2  5  2  0  0  0
  4  6  2  0  0  0
  7  8  2  0  0  0
  9 19  2  0  0  0
M  END
> <rmsd>
0.483345985

$$$$
ZINC92121994


 21 23  0  0  0  0  0  0  0  0999 V2000
    6.3657   -3.2312    2.1142 C   0  0  0  0  0
    5.0842   -3.7699    1.9994 C   0  0  0  0  0
    6.6324   -1.9542    1.6204 C   0  0  0  0  0
    4.3360   -1.7546    0.8966 C   0  0  0  0  0
    4.0694   -3.0316    1.3905 C   0  0  0  0  0
    5.6176   -1.2159    1.0116 C   0  0  0  0  0
   -1.0683    3.3700   -0.1305 C   0  0  0  0  0
   -1.8125    2.2562   -0.1283 C   0  0  0  0  0
    3.2683   -0.9778    0.2552 C   0  0  0  0  0
    0.4239    3.3588    0.0051 C   0  0  0  0  0
   -1.2317    0.8811    0.0318 C   0  0  0  0  0
    1.0352    1.9585   -0.1222 C   0  0  0  0  0
    1.5278    0.8747    2.8198 C   0  0  0  0  0
    0.1709    1.0991    2.1465 C   0  0  0  0  0
    2.0955   -0.4947    2.4643 C   0  0  0  0  0
    0.8370   -0.5284    0.3420 C   0  0  0  0  0
    0.2115    0.8641    0.6081 C   0  0  0  0  0
    2.1327   -0.6721    1.0090 N   0  0  0  0  0
    3.4677   -0.6404   -0.9107 O   0  0  0  0  0
    2.8241   -3.5770    1.2898 O   0  0  0  0  0
    5.8997    0.0302    0.5366 O   0  0  0  0  0
  1  2  1  0  0  0
  3  6  1  0  0  0
  4  5  1  0  0  0
  4  9  1  0  0  0
  5 20  1  0  0  0
  6 21  1  0  0  0
  9 18  1  0  0  0
 10  7  1  0  0  0
 10 12  1  0  0  0
 11  8  1  0  0  0
 11 17  1  0  0  0
 12 17  1  0  0  0
 13 14  1  0  0  0
 13 15  1  0  0  0
 14 17  1  0  0  0
 15 18  1  0  0  0
 16 17  1  0  0  0
 16 18  1  0  0  0
  1  3  2  0  0  0
  2  5  2  0  0  0
  4  6  2  0  0  0
  7  8  2  0  0  0
  9 19  2  0  0  0
M  END
> <rmsd>
0.49798128

$$$$
ZINC92117575


 21 22  0  0  0  0  0  0  0  0999 V2000
    1.1888    3.2593   -0.8716 C   0  0  0  0  0
    0.8609    3.9175    0.3137 C   0  0  0  0  0
    6.3423   -2.9356    2.4152 C   0  0  0  0  0
    1.1839    1.8652   -0.9195 C   0  0  0  0  0
    0.5283    3.1817    1.4511 C   0  0  0  0  0
    5.1421   -3.6183    2.2178 C   0  0  0  0  0
    6.5223   -1.6673    1.8631 C   0  0  0  0  0
    4.3017   -1.7644    0.9162 C   0  0  0  0  0
    0.8513    1.1294    0.2179 C   0  0  0  0  0
    0.5235    1.7877    1.4032 C   0  0  0  0  0
    4.1218   -3.0327    1.4683 C   0  0  0  0  0
    5.5020   -1.0818    1.1135 C   0  0  0  0  0
    3.2352   -1.1523    0.1319 C   0  0  0  0  0
    0.8572   -0.3696    0.1330 C   0  0  0  0  0
    2.0148   -0.9435    0.7807 N   0  0  0  0  0
    0.1831    1.0579    2.5756 N   0  0  0  0  0
   -1.0180    0.7595    2.7758 O   0  0  0  0  0
    3.4223   -0.8594   -1.0601 O   0  0  0  0  0
    1.0941    0.7348    3.3738 O   0  0  0  0  0
    2.9566   -3.7173    1.2889 O   0  0  0  0  0
    5.6987    0.1587    0.5839 O   0  0  0  0  0
  1  2  1  0  0  0
  3  6  1  0  0  0
  4  9  1  0  0  0
  5 10  1  0  0  0
  7 12  1  0  0  0
  8 11  1  0  0  0
  8 13  1  0  0  0
 10 16  1  0  0  0
 11 20  1  0  0  0
 12 21  1  0  0  0
 13 15  1  0  0  0
 14  9  1  0  0  0
 14 15  1  0  0  0
 16 17  1  0  0  0
  1  4  2  0  0  0
  2  5  2  0  0  0
  3  7  2  0  0  0
  6 11  2  0  0  0
  8 12  2  0  0  0
  9 10  2  0  0  0
 13 18  2  0  0  0
 16 19  2  0  0  0
M  CHG  2  16   1  17  -1
M  END
> <rmsd>
0.285428822

$$$$
ZINC92117604


 21 23  0  0  0  0  0  0  0  0999 V2000
    6.3256   -2.9548    2.4007 C   0  0  0  0  0
    5.1144   -3.6192    2.2081 C   0  0  0  0  0
    6.5212   -1.6878    1.8509 C   0  0  0  0  0
    4.2944   -1.7500    0.9157 C   0  0  0  0  0
    4.0989   -3.0169    1.4656 C   0  0  0  0  0
    5.5056   -1.0855    1.1083 C   0  0  0  0  0
    0.6768    3.2085    0.9493 C   0  0  0  0  0
    0.8759    1.1691    0.1975 C   0  0  0  0  0
    3.2131   -1.1086    0.1241 C   0  0  0  0  0
    0.4487    4.3092    1.9202 C   0  0  0  0  0
   -0.3202    3.8232    3.1535 C   0  0  0  0  0
    0.2501    2.4998    3.6736 C   0  0  0  0  0
    0.1653    1.4095    2.6035 C   0  0  0  0  0
    0.8663   -0.3039    0.1539 C   0  0  0  0  0
    1.0295    3.2817   -0.3172 N   0  0  0  0  0
    1.1544    1.9884   -0.7929 N   0  0  0  0  0
    0.5764    1.8923    1.3045 N   0  0  0  0  0
    2.0211   -0.8962    0.7954 N   0  0  0  0  0
    3.4179   -0.8270   -1.0538 O   0  0  0  0  0
    2.9229   -3.6838    1.2906 O   0  0  0  0  0
    5.7176    0.1533    0.5806 O   0  0  0  0  0
  1  2  1  0  0  0
  3  6  1  0  0  0
  4  5  1  0  0  0
  4  9  1  0  0  0
  5 20  1  0  0  0
  6 21  1  0  0  0
  7 17  1  0  0  0
  8 17  1  0  0  0
  9 18  1  0  0  0
 10  7  1  0  0  0
 10 11  1  0  0  0
 11 12  1  0  0  0
 12 13  1  0  0  0
 13 17  1  0  0  0
 14  8  1  0  0  0
 14 18  1  0  0  0
 15 16  1  0  0  0
  1  3  2  0  0  0
  2  5  2  0  0  0
  4  6  2  0  0  0
  7 15  2  0  0  0
  8 16  2  0  0  0
  9 19  2  0  0  0
M  END
> <rmsd>
0.257645279

$$$$
ZINC92117604


 21 23  0  0  0  0  0  0  0  0999 V2000
    6.3390   -2.9670    2.3781 C   0  0  0  0  0
    5.1263   -3.6302    2.1904 C   0  0  0  0  0
    6.5309   -1.6970    1.8341 C   0  0  0  0  0
    4.2974   -1.7535    0.9146 C   0  0  0  0  0
    4.1055   -3.0235    1.4587 C   0  0  0  0  0
    5.5101   -1.0903    1.1023 C   0  0  0  0  0
    0.5458    3.2532   -0.3258 C   0  0  0  0  0
    0.8744    1.1702    0.2377 C   0  0  0  0  0
    3.2106   -1.1074    0.1345 C   0  0  0  0  0
    0.0512    4.4126   -1.1113 C   0  0  0  0  0
   -0.3024    4.0111   -2.5474 C   0  0  0  0  0
   -1.1160    2.7132   -2.5735 C   0  0  0  0  0
   -0.3307    1.5626   -1.9405 C   0  0  0  0  0
    0.8642   -0.3025    0.1857 C   0  0  0  0  0
    1.2018    3.2463    0.8160 N   0  0  0  0  0
    1.4105    1.9255    1.1716 N   0  0  0  0  0
    0.3208    1.9619   -0.7135 N   0  0  0  0  0
    2.0234   -0.8986    0.8155 N   0  0  0  0  0
    3.4070   -0.8191   -1.0432 O   0  0  0  0  0
    2.9282   -3.6892    1.2883 O   0  0  0  0  0
    5.7185    0.1515    0.5802 O   0  0  0  0  0
  1  2  1  0  0  0
  3  6  1  0  0  0
  4  5  1  0  0  0
  4  9  1  0  0  0
  5 20  1  0  0  0
  6 21  1  0  0  0
  7 17  1  0  0  0
  8 17  1  0  0  0
  9 18  1  0  0  0
 10  7  1  0  0  0
 10 11  1  0  0  0
 11 12  1  0  0  0
 12 13  1  0  0  0
 13 17  1  0  0  0
 14  8  1  0  0  0
 14 18  1  0  0  0
 15 16  1  0  0  0
  1  3  2  0  0  0
  2  5  2  0  0  0
  4  6  2  0  0  0
  7 15  2  0  0  0
  8 16  2  0  0  0
  9 19  2  0  0  0
M  END
> <rmsd>
0.257876515

$$$$
ZINC92124218


 21 23  0  0  0  0  0  0  0  0999 V2000
    6.4685   -3.3011    1.8519 C   0  0  0  0  0
    5.1857   -3.8454    1.7898 C   0  0  0  0  0
    6.6912   -1.9903    1.4300 C   0  0  0  0  0
    4.3483   -1.7681    0.8839 C   0  0  0  0  0
    4.1256   -3.0789    1.3057 C   0  0  0  0  0
    5.6310   -1.2238    0.9460 C   0  0  0  0  0
    0.3045   -0.6702   -0.2437 C   0  0  0  0  0
   -0.6121   -1.9596   -1.6208 C   0  0  0  0  0
    3.2194   -0.9519    0.3677 C   0  0  0  0  0
    0.1760    2.1789   -0.1254 C   0  0  0  0  0
    1.3557    1.4598    0.5369 C   0  0  0  0  0
   -0.2365    1.4750   -1.4194 C   0  0  0  0  0
    0.9943    0.0076    0.8891 C   0  0  0  0  0
   -1.0713   -3.2047   -2.2477 C   0  0  0  0  0
    0.0923   -1.9536   -0.4482 N   0  0  0  0  0
   -0.8607   -0.7628   -2.1587 N   0  0  0  0  0
   -0.2793    0.0397   -1.2564 N   0  0  0  0  0
    2.1712   -0.7425    1.2503 N   0  0  0  0  0
    3.2600   -0.5334   -0.7864 O   0  0  0  0  0
    2.8800   -3.6305    1.2547 O   0  0  0  0  0
    5.8706    0.0551    0.5398 O   0  0  0  0  0
  1  2  1  0  0  0
  3  6  1  0  0  0
  4  5  1  0  0  0
  4  9  1  0  0  0
  5 20  1  0  0  0
  6 21  1  0  0  0
  7 17  1  0  0  0
  8 15  1  0  0  0
  9 18  1  0  0  0
 10 11  1  0  0  0
 10 12  1  0  0  0
 11 13  1  0  0  0
 12 17  1  0  0  0
 13  7  1  0  0  0
 13 18  1  0  0  0
 14  8  1  0  0  0
 17 16  1  0  0  0
  1  3  2  0  0  0
  2  5  2  0  0  0
  4  6  2  0  0  0
  7 15  2  0  0  0
  8 16  2  0  0  0
  9 19  2  0  0  0
M  END
> <rmsd>
0.443177074

$$$$
ZINC92126212


 21 22  0  0  0  0  0  0  0  0999 V2000
    6.3454   -2.9411    2.4065 C   0  0  0  0  0
    0.5503    3.1950    1.4116 C   0  0  0  0  0
    5.1438   -3.6218    2.2112 C   0  0  0  0  0
    6.5254   -1.6719    1.8566 C   0  0  0  0  0
    0.5325    1.8035    1.4062 C   0  0  0  0  0
    0.8859    3.8886    0.2527 C   0  0  0  0  0
    4.3021   -1.7643    0.9158 C   0  0  0  0  0
    4.1221   -3.0334    1.4658 C   0  0  0  0  0
    5.5037   -1.0835    1.1111 C   0  0  0  0  0
    0.8534    1.1354    0.2331 C   0  0  0  0  0
    1.1979    3.1678   -0.8912 C   0  0  0  0  0
    3.2341   -1.1490    0.1357 C   0  0  0  0  0
    1.0010    5.1225   -2.4080 C   0  0  0  0  0
    2.4606    3.1902   -3.0278 C   0  0  0  0  0
    0.8572   -0.3634    0.1451 C   0  0  0  0  0
    1.1729    1.8283   -0.8685 N   0  0  0  0  0
    2.0158   -0.9400    0.7884 N   0  0  0  0  0
    1.5426    3.8120   -2.0872 N   0  0  0  0  0
    3.4182   -0.8539   -1.0561 O   0  0  0  0  0
    2.9555   -3.7161    1.2883 O   0  0  0  0  0
    5.7005    0.1578    0.5835 O   0  0  0  0  0
  1  3  1  0  0  0
  2  5  1  0  0  0
  4  9  1  0  0  0
  6 11  1  0  0  0
  7  8  1  0  0  0
  7 12  1  0  0  0
  8 20  1  0  0  0
  9 21  1  0  0  0
 10 16  1  0  0  0
 11 18  1  0  0  0
 12 17  1  0  0  0
 13 18  1  0  0  0
 14 18  1  0  0  0
 15 10  1  0  0  0
 15 17  1  0  0  0
  1  4  2  0  0  0
  2  6  2  0  0  0
  3  8  2  0  0  0
  5 10  2  0  0  0
  7  9  2  0  0  0
 11 16  2  0  0  0
 12 19  2  0  0  0
M  CHG  1  16   1
M  END
> <rmsd>
0.282596111

$$$$
ZINC67560929


 21 23  0  0  0  0  0  0  0  0999 V2000
    6.4385   -3.2358    1.9766 C   0  0  0  0  0
    5.1667   -3.8020    1.8900 C   0  0  0  0  0
    6.6560   -1.9358    1.5201 C   0  0  0  0  0
   -0.5192    2.7275   -0.4383 C   0  0  0  0  0
    0.8173    2.9903   -0.3302 C   0  0  0  0  0
    4.3296   -1.7681    0.8899 C   0  0  0  0  0
    4.1123   -3.0681    1.3465 C   0  0  0  0  0
    5.6015   -1.2020    0.9768 C   0  0  0  0  0
    0.4989    0.8550    0.1599 C   0  0  0  0  0
    3.2276   -1.0007    0.3206 C   0  0  0  0  0
    1.6668    0.5897    3.2809 C   0  0  0  0  0
    3.1442    0.3362    3.2117 C   0  0  0  0  0
    2.1872   -0.6233    2.5673 C   0  0  0  0  0
   -1.9576    0.7002   -0.1199 C   0  0  0  0  0
    0.7663   -0.5703    0.5481 C   0  0  0  0  0
   -0.6875    1.3991   -0.1302 N   0  0  0  0  0
    1.4228    1.8142    0.0414 N   0  0  0  0  0
    2.1009   -0.7407    1.1184 N   0  0  0  0  0
    3.3638   -0.6102   -0.8444 O   0  0  0  0  0
    2.8776   -3.6410    1.2709 O   0  0  0  0  0
    5.8362    0.0666    0.5369 O   0  0  0  0  0
  1  2  1  0  0  0
  3  8  1  0  0  0
  4 16  1  0  0  0
  5 17  1  0  0  0
  6  7  1  0  0  0
  6 10  1  0  0  0
  7 20  1  0  0  0
  8 21  1  0  0  0
  9 16  1  0  0  0
 10 18  1  0  0  0
 11 12  1  0  0  0
 11 13  1  0  0  0
 12 13  1  0  0  0
 13 18  1  0  0  0
 14 16  1  0  0  0
 15  9  1  0  0  0
 15 18  1  0  0  0
  1  3  2  0  0  0
  2  7  2  0  0  0
  4  5  2  0  0  0
  6  8  2  0  0  0
  9 17  2  0  0  0
 10 19  2  0  0  0
M  CHG  1  17   1
M  END
> <rmsd>
0.329448283

$$$$
ZINC94798658


 21 23  0  0  0  0  0  0  0  0999 V2000
    0.9858    3.6399    0.4195 C   0  0  0  0  0
   -0.0723    2.8644   -0.0546 C   0  0  0  0  0
    2.3010    3.2165    0.2285 C   0  0  0  0  0
    0.1849    1.6655   -0.7194 C   0  0  0  0  0
    2.5582    2.0176   -0.4363 C   0  0  0  0  0
    1.5002    1.2420   -0.9103 C   0  0  0  0  0
    4.4062   -2.5171   -1.0019 C   0  0  0  0  0
    4.3648   -4.3352    3.1805 C   0  0  0  0  0
    3.2853   -1.9353   -1.8507 C   0  0  0  0  0
    2.9521   -1.0232    0.2654 C   0  0  0  0  0
    4.6238   -4.1767    1.6893 C   0  0  0  0  0
    2.7167   -2.8223    2.4022 C   0  0  0  0  0
    2.8836   -3.9949    3.3686 C   0  0  0  0  0
    4.0768   -2.0563    0.4246 C   0  0  0  0  0
    1.9827   -5.1796    2.9824 C   0  0  0  0  0
    2.5785   -3.5783    4.8087 C   0  0  0  0  0
    1.7777   -0.0485   -1.6256 C   0  0  0  0  0
    5.3004   -1.5124    1.1551 C   0  0  0  0  0
    3.0054   -0.6764   -1.1597 N   0  0  0  0  0
    5.5607   -0.1724    0.7416 N   0  0  0  0  0
    3.5541   -3.2178    1.2033 N   0  0  0  0  0
  1  2  1  0  0  0
  3  5  1  0  0  0
  4  6  1  0  0  0
  7  9  1  0  0  0
  7 14  1  0  0  0
  8 11  1  0  0  0
  8 13  1  0  0  0
  9 19  1  0  0  0
 10 14  1  0  0  0
 10 19  1  0  0  0
 11 21  1  0  0  0
 12 13  1  0  0  0
 12 21  1  0  0  0
 13 15  1  0  0  0
 13 16  1  0  0  0
 14 18  1  0  0  0
 14 21  1  0  0  0
 17  6  1  0  0  0
 17 19  1  0  0  0
 18 20  1  0  0  0
  1  3  2  0  0  0
  2  4  2  0  0  0
  5  6  2  0  0  0
M  CHG  1  21   1
M  END
> <rmsd>
0.501174033

$$$$
ZINC92106412


 21 22  0  0  0  0  0  0  0  0999 V2000
    1.5048    3.1707    1.1612 C   0  0  0  0  0
    0.6703    3.8395    0.2657 C   0  0  0  0  0
    6.3504   -2.9639    2.3887 C   0  0  0  0  0
    1.6083    1.7806    1.1130 C   0  0  0  0  0
   -0.0610    3.1180   -0.6778 C   0  0  0  0  0
    5.1423   -3.6354    2.2011 C   0  0  0  0  0
    6.5357   -1.6949    1.8400 C   0  0  0  0  0
    4.3047   -1.7690    0.9157 C   0  0  0  0  0
    0.8770    1.0591    0.1694 C   0  0  0  0  0
    0.0424    1.7278   -0.7260 C   0  0  0  0  0
    4.1194   -3.0380    1.4644 C   0  0  0  0  0
    5.5128   -1.0975    1.1033 C   0  0  0  0  0
    3.2355   -1.1444    0.1448 C   0  0  0  0  0
    0.9993   -0.3354    0.1406 N   0  0  0  0  0
    2.0303   -0.9312    0.8105 N   0  0  0  0  0
   -0.7146    1.0165   -1.6989 N   0  0  0  0  0
   -0.2043    0.8008   -2.8230 O   0  0  0  0  0
    3.4218   -0.8170   -1.0388 O   0  0  0  0  0
   -1.8683    0.6276   -1.4016 O   0  0  0  0  0
    2.9466   -3.7116    1.2943 O   0  0  0  0  0
    5.7147    0.1433    0.5767 O   0  0  0  0  0
  1  2  1  0  0  0
  3  6  1  0  0  0
  4  9  1  0  0  0
  5 10  1  0  0  0
  7 12  1  0  0  0
  8 11  1  0  0  0
  8 13  1  0  0  0
  9 14  1  0  0  0
 10 16  1  0  0  0
 11 20  1  0  0  0
 12 21  1  0  0  0
 13 15  1  0  0  0
 14 15  1  0  0  0
 16 17  1  0  0  0
  1  4  2  0  0  0
  2  5  2  0  0  0
  3  7  2  0  0  0
  6 11  2  0  0  0
  8 12  2  0  0  0
  9 10  2  0  0  0
 13 18  2  0  0  0
 16 19  2  0  0  0
M  CHG  2  16   1  17  -1
M  END
> <rmsd>
0.246573925

$$$$
ZINC92106412


 21 22  0  0  0  0  0  0  0  0999 V2000
    0.4694    3.1346   -0.9834 C   0  0  0  0  0
    0.6280    3.8427    0.2078 C   0  0  0  0  0
    6.3578   -2.9728    2.3757 C   0  0  0  0  0
    0.5955    1.7454   -0.9910 C   0  0  0  0  0
    0.9128    3.1618    1.3913 C   0  0  0  0  0
    5.1480   -3.6421    2.1910 C   0  0  0  0  0
    6.5424   -1.7023    1.8302 C   0  0  0  0  0
    4.3075   -1.7705    0.9152 C   0  0  0  0  0
    0.8804    1.0645    0.1925 C   0  0  0  0  0
    1.0390    1.7726    1.3837 C   0  0  0  0  0
    4.1228   -3.0410    1.4607 C   0  0  0  0  0
    5.5173   -1.1012    1.0998 C   0  0  0  0  0
    3.2358   -1.1420    0.1509 C   0  0  0  0  0
    1.0007   -0.3300    0.1587 N   0  0  0  0  0
    2.0338   -0.9293    0.8224 N   0  0  0  0  0
    1.3298    1.1032    2.6055 N   0  0  0  0  0
    0.3789    0.7199    3.3263 O   0  0  0  0  0
    3.4175   -0.8111   -1.0325 O   0  0  0  0  0
    2.5278    0.9173    2.9230 O   0  0  0  0  0
    2.9484   -3.7125    1.2934 O   0  0  0  0  0
    5.7186    0.1410    0.5763 O   0  0  0  0  0
  1  2  1  0  0  0
  3  6  1  0  0  0
  4  9  1  0  0  0
  5 10  1  0  0  0
  7 12  1  0  0  0
  8 11  1  0  0  0
  8 13  1  0  0  0
  9 14  1  0  0  0
 10 16  1  0  0  0
 11 20  1  0  0  0
 12 21  1  0  0  0
 13 15  1  0  0  0
 14 15  1  0  0  0
 16 17  1  0  0  0
  1  4  2  0  0  0
  2  5  2  0  0  0
  3  7  2  0  0  0
  6 11  2  0  0  0
  8 12  2  0  0  0
  9 10  2  0  0  0
 13 18  2  0  0  0
 16 19  2  0  0  0
M  CHG  2  16   1  17  -1
M  END
> <rmsd>
0.243030474

$$$$
ZINC92125775


 21 22  0  0  0  0  0  0  0  0999 V2000
   -0.0848    3.0991   -0.6924 C   0  0  0  0  0
    6.3539   -2.9680    2.3830 C   0  0  0  0  0
    0.0363    1.7099   -0.7235 C   0  0  0  0  0
    0.6380    3.8415    0.2417 C   0  0  0  0  0
    5.1448   -3.6381    2.1967 C   0  0  0  0  0
    6.5393   -1.6985    1.8356 C   0  0  0  0  0
    1.6027    1.8053    1.1136 C   0  0  0  0  0
    4.3065   -1.7693    0.9154 C   0  0  0  0  0
    0.8800    1.0630    0.1795 C   0  0  0  0  0
    1.4816    3.1945    1.1446 C   0  0  0  0  0
    4.1211   -3.0388    1.4628 C   0  0  0  0  0
    5.5156   -1.0991    1.1017 C   0  0  0  0  0
    3.2364   -1.1426    0.1475 C   0  0  0  0  0
    1.0010   -0.3315    0.1485 N   0  0  0  0  0
    2.0327   -0.9292    0.8157 N   0  0  0  0  0
    2.2178    3.9512    2.0945 N   0  0  0  0  0
    2.0946    5.1998    2.1041 O   0  0  0  0  0
    3.4208   -0.8137   -1.0361 O   0  0  0  0  0
    2.9712    3.3504    2.8981 O   0  0  0  0  0
    2.9473   -3.7111    1.2940 O   0  0  0  0  0
    5.7177    0.1422    0.5764 O   0  0  0  0  0
  1  3  1  0  0  0
  2  5  1  0  0  0
  4 10  1  0  0  0
  6 12  1  0  0  0
  7  9  1  0  0  0
  8 11  1  0  0  0
  8 13  1  0  0  0
  9 14  1  0  0  0
 10 16  1  0  0  0
 11 20  1  0  0  0
 12 21  1  0  0  0
 13 15  1  0  0  0
 14 15  1  0  0  0
 16 17  1  0  0  0
  1  4  2  0  0  0
  2  6  2  0  0  0
  3  9  2  0  0  0
  5 11  2  0  0  0
  7 10  2  0  0  0
  8 12  2  0  0  0
 13 18  2  0  0  0
 16 19  2  0  0  0
M  CHG  2  16   1  17  -1
M  END
> <rmsd>
0.243653178

$$$$
ZINC92125775


 21 22  0  0  0  0  0  0  0  0999 V2000
    1.4833    3.1942    1.1442 C   0  0  0  0  0
    6.3542   -2.9681    2.3826 C   0  0  0  0  0
    1.6033    1.8049    1.1135 C   0  0  0  0  0
    0.6399    3.8415    0.2411 C   0  0  0  0  0
    5.1451   -3.6383    2.1963 C   0  0  0  0  0
    6.5395   -1.6985    1.8353 C   0  0  0  0  0
    0.0367    1.7100   -0.7233 C   0  0  0  0  0
    4.3067   -1.7693    0.9153 C   0  0  0  0  0
    0.8800    1.0628    0.1798 C   0  0  0  0  0
   -0.0833    3.0995   -0.6926 C   0  0  0  0  0
    4.1214   -3.0389    1.4626 C   0  0  0  0  0
    5.5157   -1.0992    1.1015 C   0  0  0  0  0
    3.2365   -1.1427    0.1474 C   0  0  0  0  0
    1.0010   -0.3317    0.1487 N   0  0  0  0  0
    2.0328   -0.9293    0.8157 N   0  0  0  0  0
   -0.9425    3.7592   -1.6110 N   0  0  0  0  0
   -1.0361    5.0096   -1.5650 O   0  0  0  0  0
    3.4207   -0.8137   -1.0362 O   0  0  0  0  0
   -1.5842    3.0738   -2.4431 O   0  0  0  0  0
    2.9476   -3.7113    1.2938 O   0  0  0  0  0
    5.7177    0.1422    0.5763 O   0  0  0  0  0
  1  3  1  0  0  0
  2  5  1  0  0  0
  4 10  1  0  0  0
  6 12  1  0  0  0
  7  9  1  0  0  0
  8 11  1  0  0  0
  8 13  1  0  0  0
  9 14  1  0  0  0
 10 16  1  0  0  0
 11 20  1  0  0  0
 12 21  1  0  0  0
 13 15  1  0  0  0
 14 15  1  0  0  0
 16 17  1  0  0  0
  1  4  2  0  0  0
  2  6  2  0  0  0
  3  9  2  0  0  0
  5 11  2  0  0  0
  7 10  2  0  0  0
  8 12  2  0  0  0
 13 18  2  0  0  0
 16 19  2  0  0  0
M  CHG  2  16   1  17  -1
M  END
> <rmsd>
0.243828341

$$$$
ZINC92124529


 21 22  0  0  0  0  0  0  0  0999 V2000
    6.3387   -3.0070    2.3800 C   0  0  0  0  0
    0.6079    1.1882    1.0330 C   0  0  0  0  0
    0.5884    2.5828    1.0371 C   0  0  0  0  0
    5.1207   -3.6693    2.2274 C   0  0  0  0  0
    6.5306   -1.7559    1.7937 C   0  0  0  0  0
    0.8046    1.1979   -1.3749 C   0  0  0  0  0
    4.2864   -1.8296    0.9019 C   0  0  0  0  0
    0.7160    0.4956   -0.1729 C   0  0  0  0  0
    0.6770    3.2851   -0.1648 C   0  0  0  0  0
    4.0946   -3.0807    1.4884 C   0  0  0  0  0
    5.5045   -1.1673    1.0546 C   0  0  0  0  0
    0.7851    2.5925   -1.3709 C   0  0  0  0  0
    3.2138   -1.2142    0.1287 C   0  0  0  0  0
    0.6547    4.7764   -0.1576 C   0  0  0  0  0
   -0.5364   -1.6214    0.4117 C   0  0  0  0  0
    0.7369   -1.0177   -0.1774 C   0  0  0  0  0
    1.9045   -1.5282    0.5043 N   0  0  0  0  0
    3.4787   -0.4669   -0.8269 O   0  0  0  0  0
    2.9120   -3.7452    1.3528 O   0  0  0  0  0
    5.7130    0.0562    0.4909 O   0  0  0  0  0
    0.8697    3.2589   -2.5309 F   0  0  0  0  0
  1  4  1  0  0  0
  2  8  1  0  0  0
  3  9  1  0  0  0
  5 11  1  0  0  0
  6 12  1  0  0  0
  7 10  1  0  0  0
  7 13  1  0  0  0
 10 19  1  0  0  0
 11 20  1  0  0  0
 12 21  1  0  0  0
 13 17  1  0  0  0
 14  9  1  0  0  0
 15 16  1  0  0  0
 16  8  1  0  0  0
 16 17  1  0  0  0
  1  5  2  0  0  0
  2  3  2  0  0  0
  4 10  2  0  0  0
  6  8  2  0  0  0
  7 11  2  0  0  0
  9 12  2  0  0  0
 13 18  2  0  0  0
M  END
> <rmsd>
0.344130725

$$$$
ZINC92124529


 21 22  0  0  0  0  0  0  0  0999 V2000
    6.3333   -2.9251    2.4312 C   0  0  0  0  0
    1.8544    1.7856    0.9361 C   0  0  0  0  0
    1.8594    3.1779    1.0210 C   0  0  0  0  0
    5.1351   -3.6102    2.2303 C   0  0  0  0  0
    6.5143   -1.6587    1.8753 C   0  0  0  0  0
   -0.1251    1.8770   -0.4458 C   0  0  0  0  0
    4.2989   -1.7626    0.9171 C   0  0  0  0  0
    0.8622    1.1351    0.2026 C   0  0  0  0  0
    0.8720    3.9196    0.3726 C   0  0  0  0  0
    4.1178   -3.0290    1.4733 C   0  0  0  0  0
    5.4972   -1.0774    1.1182 C   0  0  0  0  0
   -0.1203    3.2692   -0.3608 C   0  0  0  0  0
    3.2357   -1.1549    0.1250 C   0  0  0  0  0
    0.8791    5.4081    0.4663 C   0  0  0  0  0
   -0.4301   -0.9896    0.6584 C   0  0  0  0  0
    0.8567   -0.3756    0.1105 C   0  0  0  0  0
    2.0116   -0.9452    0.7666 N   0  0  0  0  0
    3.4286   -0.8663   -1.0672 O   0  0  0  0  0
    2.9546   -3.7158    1.2903 O   0  0  0  0  0
    5.6948    0.1612    0.5847 O   0  0  0  0  0
   -1.0738    3.9736   -0.9864 F   0  0  0  0  0
  1  4  1  0  0  0
  2  8  1  0  0  0
  3  9  1  0  0  0
  5 11  1  0  0  0
  6 12  1  0  0  0
  7 10  1  0  0  0
  7 13  1  0  0  0
 10 19  1  0  0  0
 11 20  1  0  0  0
 12 21  1  0  0  0
 13 17  1  0  0  0
 14  9  1  0  0  0
 15 16  1  0  0  0
 16  8  1  0  0  0
 16 17  1  0  0  0
  1  5  2  0  0  0
  2  3  2  0  0  0
  4 10  2  0  0  0
  6  8  2  0  0  0
  7 11  2  0  0  0
  9 12  2  0  0  0
 13 18  2  0  0  0
M  END
> <rmsd>
0.290851891

$$$$
ZINC92126121


 21 24  0  0  0  0  0  0  0  0999 V2000
    6.3598   -3.0305    2.2911 C   0  0  0  0  0
    5.1297   -3.6667    2.1248 C   0  0  0  0  0
    6.5612   -1.7535    1.7672 C   0  0  0  0  0
    4.3022   -1.7488    0.9105 C   0  0  0  0  0
    4.1008   -3.0258    1.4345 C   0  0  0  0  0
    5.5324   -1.1127    1.0769 C   0  0  0  0  0
    3.2068   -1.0664    0.1747 C   0  0  0  0  0
    1.1877    2.7960   -0.5948 C   0  0  0  0  0
    1.7219    2.2448    0.7520 C   0  0  0  0  0
   -0.1701    2.1183   -0.2802 C   0  0  0  0  0
   -1.0674   -1.1978    2.2988 C   0  0  0  0  0
   -1.9717   -0.0712    2.8806 C   0  0  0  0  0
   -0.4537   -0.5139    1.0877 C   0  0  0  0  0
    0.8785   -0.2185    0.3082 C   0  0  0  0  0
   -0.0608    0.7545    1.9378 C   0  0  0  0  0
    0.5935    1.2482    0.6941 C   0  0  0  0  0
    2.0536   -0.8548    0.8983 N   0  0  0  0  0
    3.3757   -0.7578   -1.0021 O   0  0  0  0  0
   -1.2777    1.1642    2.5697 O   0  0  0  0  0
    2.9063   -3.6654    1.2844 O   0  0  0  0  0
    5.7503    0.1353    0.5739 O   0  0  0  0  0
  1  2  1  0  0  0
  3  6  1  0  0  0
  4  5  1  0  0  0
  4  7  1  0  0  0
  5 20  1  0  0  0
  6 21  1  0  0  0
  7 17  1  0  0  0
  8  9  1  0  0  0
  8 10  1  0  0  0
  9 16  1  0  0  0
 10 16  1  0  0  0
 11 12  1  0  0  0
 11 13  1  0  0  0
 12 19  1  0  0  0
 13 14  1  0  0  0
 13 15  1  0  0  0
 14 16  1  0  0  0
 14 17  1  0  0  0
 15 16  1  0  0  0
 15 19  1  0  0  0
  1  3  2  0  0  0
  2  5  2  0  0  0
  4  6  2  0  0  0
  7 18  2  0  0  0
M  END
> <rmsd>
0.255535364

$$$$
ZINC67649666


 21 22  0  0  0  0  0  0  0  0999 V2000
    6.3166   -2.9355    2.4277 C   0  0  0  0  0
    5.1104   -3.6073    2.2292 C   0  0  0  0  0
    6.5105   -1.6712    1.8712 C   0  0  0  0  0
    4.2921   -1.7506    0.9177 C   0  0  0  0  0
    0.8727    1.1740    0.1955 C   0  0  0  0  0
    4.0982   -3.0149    1.4743 C   0  0  0  0  0
    5.4982   -1.0788    1.1162 C   0  0  0  0  0
    0.5688    1.9831    1.3067 C   0  0  0  0  0
    1.1798    2.0646   -0.8040 C   0  0  0  0  0
    3.2345   -1.1311    0.1271 C   0  0  0  0  0
    0.1704    1.5500    2.6578 C   0  0  0  0  0
    1.5807    1.8527   -2.2078 C   0  0  0  0  0
    2.7388    4.9029   -1.0510 C   0  0  0  0  0
    0.8643   -0.3253    0.1164 C   0  0  0  0  0
    1.2628    4.5742   -0.9065 C   0  0  0  0  0
    0.6737    3.2875    1.0389 N   0  0  0  0  0
    1.0469    3.3047   -0.2520 N   0  0  0  0  0
    2.0138   -0.9078    0.7707 N   0  0  0  0  0
    3.4287   -0.8447   -1.0653 O   0  0  0  0  0
    2.9275   -3.6894    1.2925 O   0  0  0  0  0
    5.7090    0.1572    0.5819 O   0  0  0  0  0
  1  2  1  0  0  0
  3  7  1  0  0  0
  4  6  1  0  0  0
  4 10  1  0  0  0
  5  8  1  0  0  0
  6 20  1  0  0  0
  7 21  1  0  0  0
  9 17  1  0  0  0
 10 18  1  0  0  0
 11  8  1  0  0  0
 12  9  1  0  0  0
 13 15  1  0  0  0
 14  5  1  0  0  0
 14 18  1  0  0  0
 15 17  1  0  0  0
 17 16  1  0  0  0
  1  3  2  0  0  0
  2  6  2  0  0  0
  4  7  2  0  0  0
  5  9  2  0  0  0
  8 16  2  0  0  0
 10 19  2  0  0  0
M  END
> <rmsd>
0.266132027

$$$$
ZINC92125978


 21 22  0  0  0  0  0  0  0  0999 V2000
    6.3948   -3.1789    2.1656 C   0  0  0  0  0
    5.1304   -3.7529    2.0328 C   0  0  0  0  0
    6.6351   -1.8981    1.6682 C   0  0  0  0  0
    4.3467   -1.7652    0.9049 C   0  0  0  0  0
    1.1329    1.7952    2.1774 C   0  0  0  0  0
    4.1064   -3.0461    1.4024 C   0  0  0  0  0
    5.6110   -1.1912    1.0379 C   0  0  0  0  0
    2.1672    2.4257    2.8904 C   0  0  0  0  0
    0.1822    1.5491    3.1324 C   0  0  0  0  0
    3.2562   -1.0125    0.2330 C   0  0  0  0  0
    3.4550    2.9201    2.3747 C   0  0  0  0  0
   -1.1469    0.9243    3.1108 C   0  0  0  0  0
   -0.0628    2.2262    0.0075 C   0  0  0  0  0
    0.9778   -0.0630    0.4843 C   0  0  0  0  0
    1.0764    1.4614    0.6941 C   0  0  0  0  0
    1.8800    2.5605    4.1881 N   0  0  0  0  0
    2.1436   -0.7688    1.0084 N   0  0  0  0  0
    3.3928   -0.6786   -0.9410 O   0  0  0  0  0
    0.6164    2.0013    4.3365 O   0  0  0  0  0
    2.8781   -3.6256    1.2844 O   0  0  0  0  0
    5.8673    0.0592    0.5598 O   0  0  0  0  0
  1  2  1  0  0  0
  3  7  1  0  0  0
  4  6  1  0  0  0
  4 10  1  0  0  0
  5  8  1  0  0  0
  6 20  1  0  0  0
  7 21  1  0  0  0
  9 19  1  0  0  0
 10 17  1  0  0  0
 11  8  1  0  0  0
 12  9  1  0  0  0
 13 15  1  0  0  0
 14 15  1  0  0  0
 14 17  1  0  0  0
 15  5  1  0  0  0
 16 19  1  0  0  0
  1  3  2  0  0  0
  2  6  2  0  0  0
  4  7  2  0  0  0
  5  9  2  0  0  0
  8 16  2  0  0  0
 10 18  2  0  0  0
M  END
> <rmsd>
0.36109665

$$$$
ZINC92125978


 21 22  0  0  0  0  0  0  0  0999 V2000
    6.3952   -3.1790    2.1656 C   0  0  0  0  0
    5.1308   -3.7529    2.0328 C   0  0  0  0  0
    6.6355   -1.8981    1.6682 C   0  0  0  0  0
    4.3470   -1.7652    0.9049 C   0  0  0  0  0
    1.1333    1.7952    2.1774 C   0  0  0  0  0
    4.1068   -3.0461    1.4024 C   0  0  0  0  0
    5.6114   -1.1913    1.0378 C   0  0  0  0  0
    0.1637    1.5470    3.1643 C   0  0  0  0  0
    2.1465    2.4104    2.8637 C   0  0  0  0  0
    3.2566   -1.0125    0.2330 C   0  0  0  0  0
   -1.1498    0.9006    3.0043 C   0  0  0  0  0
    3.4601    2.9443    2.4809 C   0  0  0  0  0
   -0.0624    2.2262    0.0074 C   0  0  0  0  0
    0.9781   -0.0630    0.4843 C   0  0  0  0  0
    1.0768    1.4614    0.6941 C   0  0  0  0  0
    0.5463    1.9756    4.3704 N   0  0  0  0  0
    2.1439   -0.7688    1.0083 N   0  0  0  0  0
    3.3932   -0.6787   -0.9410 O   0  0  0  0  0
    1.8080    2.5238    4.1736 O   0  0  0  0  0
    2.8785   -3.6257    1.2844 O   0  0  0  0  0
    5.8677    0.0592    0.5598 O   0  0  0  0  0
  1  2  1  0  0  0
  3  7  1  0  0  0
  4  6  1  0  0  0
  4 10  1  0  0  0
  5  8  1  0  0  0
  6 20  1  0  0  0
  7 21  1  0  0  0
  9 19  1  0  0  0
 10 17  1  0  0  0
 11  8  1  0  0  0
 12  9  1  0  0  0
 13 15  1  0  0  0
 14 15  1  0  0  0
 14 17  1  0  0  0
 15  5  1  0  0  0
 16 19  1  0  0  0
  1  3  2  0  0  0
  2  6  2  0  0  0
  4  7  2  0  0  0
  5  9  2  0  0  0
  8 16  2  0  0  0
 10 18  2  0  0  0
M  END
> <rmsd>
0.361096501

$$$$
ZINC92125978


 21 22  0  0  0  0  0  0  0  0999 V2000
    6.2671   -2.8700    2.4872 C   0  0  0  0  0
    5.0728   -3.5582    2.2736 C   0  0  0  0  0
    6.4587   -1.6118    1.9162 C   0  0  0  0  0
    4.2617   -1.7300    0.9182 C   0  0  0  0  0
   -1.0687    1.2793    0.2330 C   0  0  0  0  0
    4.0701   -2.9882    1.4892 C   0  0  0  0  0
    5.4561   -1.0419    1.1317 C   0  0  0  0  0
   -2.2237    1.3872    1.0265 C   0  0  0  0  0
   -1.5199    1.5329   -1.0352 C   0  0  0  0  0
    3.1942   -1.1230    0.0821 C   0  0  0  0  0
   -2.3433    1.2139    2.4840 C   0  0  0  0  0
   -0.8763    1.5905   -2.3542 C   0  0  0  0  0
    1.2908    2.1358    0.3858 C   0  0  0  0  0
    0.8349   -0.3568    0.0263 C   0  0  0  0  0
    0.3517    0.9570    0.6729 C   0  0  0  0  0
   -3.3084    1.6847    0.3057 N   0  0  0  0  0
    1.9894   -0.9212    0.7196 N   0  0  0  0  0
    3.4291   -0.8628   -1.0950 O   0  0  0  0  0
   -2.8551    1.7764   -1.0048 O   0  0  0  0  0
    2.9104   -3.6777    1.2944 O   0  0  0  0  0
    5.6639    0.1889    0.5841 O   0  0  0  0  0
  1  2  1  0  0  0
  3  7  1  0  0  0
  4  6  1  0  0  0
  4 10  1  0  0  0
  5  8  1  0  0  0
  6 20  1  0  0  0
  7 21  1  0  0  0
  9 19  1  0  0  0
 10 17  1  0  0  0
 11  8  1  0  0  0
 12  9  1  0  0  0
 13 15  1  0  0  0
 14 15  1  0  0  0
 14 17  1  0  0  0
 15  5  1  0  0  0
 16 19  1  0  0  0
  1  3  2  0  0  0
  2  6  2  0  0  0
  4  7  2  0  0  0
  5  9  2  0  0  0
  8 16  2  0  0  0
 10 18  2  0  0  0
M  END
> <rmsd>
0.416894436

$$$$
ZINC92124480


 21 22  0  0  0  0  0  0  0  0999 V2000
    6.3209   -2.9387    2.4212 C   0  0  0  0  0
    5.1148   -3.6107    2.2235 C   0  0  0  0  0
    6.5134   -1.6734    1.8665 C   0  0  0  0  0
    4.2936   -1.7523    0.9163 C   0  0  0  0  0
    0.8711    1.1716    0.2056 C   0  0  0  0  0
    4.1011   -3.0175    1.4710 C   0  0  0  0  0
    5.4997   -1.0802    1.1140 C   0  0  0  0  0
    0.5713    1.9861    1.3113 C   0  0  0  0  0
    1.1735    2.0669   -0.7859 C   0  0  0  0  0
    3.2340   -1.1320    0.1288 C   0  0  0  0  0
    1.3161    1.6746    3.6851 C   0  0  0  0  0
    0.4301    2.2228   -3.1754 C   0  0  0  0  0
    0.8633   -0.3275    0.1242 C   0  0  0  0  0
    0.1746    1.5675    2.6664 C   0  0  0  0  0
    1.5737    1.9336   -2.1928 C   0  0  0  0  0
    0.6795    3.2870    1.0272 N   0  0  0  0  0
    2.0145   -0.9105    0.7751 N   0  0  0  0  0
    3.4257   -0.8436   -1.0635 O   0  0  0  0  0
    1.0628    3.3327   -0.3079 O   0  0  0  0  0
    2.9299   -3.6917    1.2913 O   0  0  0  0  0
    5.7087    0.1572    0.5818 O   0  0  0  0  0
  1  2  1  0  0  0
  3  7  1  0  0  0
  4  6  1  0  0  0
  4 10  1  0  0  0
  5  8  1  0  0  0
  6 20  1  0  0  0
  7 21  1  0  0  0
  9 19  1  0  0  0
 10 17  1  0  0  0
 11 14  1  0  0  0
 12 15  1  0  0  0
 13  5  1  0  0  0
 13 17  1  0  0  0
 14  8  1  0  0  0
 15  9  1  0  0  0
 16 19  1  0  0  0
  1  3  2  0  0  0
  2  6  2  0  0  0
  4  7  2  0  0  0
  5  9  2  0  0  0
  8 16  2  0  0  0
 10 18  2  0  0  0
M  END
> <rmsd>
0.266958505

$$$$
ZINC92126317


 21 22  0  0  0  0  0  0  0  0999 V2000
    6.3259   -2.9371    2.4170 C   0  0  0  0  0
    5.1211   -3.6118    2.2201 C   0  0  0  0  0
    6.5146   -1.6706    1.8636 C   0  0  0  0  0
    4.2938   -1.7538    0.9162 C   0  0  0  0  0
    0.8944    1.1743    0.2247 C   0  0  0  0  0
    4.1051   -3.0203    1.4697 C   0  0  0  0  0
    5.4985   -1.0790    1.1132 C   0  0  0  0  0
    0.4470    2.1176   -0.7163 C   0  0  0  0  0
    1.3730    1.9420    1.2532 C   0  0  0  0  0
    3.2119   -1.1238    0.1162 C   0  0  0  0  0
   -0.1687    1.8674   -2.0305 C   0  0  0  0  0
    1.9852    1.6381    2.5532 C   0  0  0  0  0
   -0.5044   -2.4333    0.6163 C   0  0  0  0  0
   -0.4498   -0.9126    0.6985 C   0  0  0  0  0
    0.8587   -0.3376    0.1298 C   0  0  0  0  0
    0.6338    3.3743   -0.3031 N   0  0  0  0  0
    2.0129   -0.9178    0.7792 N   0  0  0  0  0
    3.4211   -0.8449   -1.0614 O   0  0  0  0  0
    1.2231    3.2568    0.9500 O   0  0  0  0  0
    2.9354   -3.6971    1.2906 O   0  0  0  0  0
    5.7037    0.1595    0.5822 O   0  0  0  0  0
  1  2  1  0  0  0
  3  7  1  0  0  0
  4  6  1  0  0  0
  4 10  1  0  0  0
  5  8  1  0  0  0
  6 20  1  0  0  0
  7 21  1  0  0  0
  9 19  1  0  0  0
 10 17  1  0  0  0
 11  8  1  0  0  0
 12  9  1  0  0  0
 13 14  1  0  0  0
 14 15  1  0  0  0
 15  5  1  0  0  0
 15 17  1  0  0  0
 16 19  1  0  0  0
  1  3  2  0  0  0
  2  6  2  0  0  0
  4  7  2  0  0  0
  5  9  2  0  0  0
  8 16  2  0  0  0
 10 18  2  0  0  0
M  END
> <rmsd>
0.278565675

$$$$
ZINC92126317


 21 22  0  0  0  0  0  0  0  0999 V2000
    6.3189   -2.9291    2.4273 C   0  0  0  0  0
    5.1153   -3.6054    2.2278 C   0  0  0  0  0
    6.5084   -1.6640    1.8712 C   0  0  0  0  0
    4.2911   -1.7515    0.9161 C   0  0  0  0  0
    0.8918    1.1720    0.2048 C   0  0  0  0  0
    4.1014   -3.0166    1.4722 C   0  0  0  0  0
    5.4946   -1.0752    1.1156 C   0  0  0  0  0
    1.3761    1.9713    1.2546 C   0  0  0  0  0
    0.4555    2.0811   -0.7223 C   0  0  0  0  0
    3.2115   -1.1245    0.1106 C   0  0  0  0  0
    1.9713    1.5342    2.5287 C   0  0  0  0  0
   -0.1617    1.9671   -2.0502 C   0  0  0  0  0
   -0.5054   -2.4357    0.6010 C   0  0  0  0  0
   -0.4524   -0.9148    0.6794 C   0  0  0  0  0
    0.8577   -0.3402    0.1138 C   0  0  0  0  0
    1.2497    3.2764    0.9982 N   0  0  0  0  0
    2.0101   -0.9177    0.7688 N   0  0  0  0  0
    3.4247   -0.8486   -1.0670 O   0  0  0  0  0
    0.6637    3.3405   -0.2603 O   0  0  0  0  0
    2.9329   -3.6949    1.2908 O   0  0  0  0  0
    5.7007    0.1620    0.5819 O   0  0  0  0  0
  1  2  1  0  0  0
  3  7  1  0  0  0
  4  6  1  0  0  0
  4 10  1  0  0  0
  5  8  1  0  0  0
  6 20  1  0  0  0
  7 21  1  0  0  0
  9 19  1  0  0  0
 10 17  1  0  0  0
 11  8  1  0  0  0
 12  9  1  0  0  0
 13 14  1  0  0  0
 14 15  1  0  0  0
 15  5  1  0  0  0
 15 17  1  0  0  0
 16 19  1  0  0  0
  1  3  2  0  0  0
  2  6  2  0  0  0
  4  7  2  0  0  0
  5  9  2  0  0  0
  8 16  2  0  0  0
 10 18  2  0  0  0
M  END
> <rmsd>
0.283506662

$$$$
ZINC92122646


 21 22  0  0  0  0  0  0  0  0999 V2000
    6.5452   -3.2028    2.0318 C   0  0  0  0  0
    5.3012   -3.8240    1.9231 C   0  0  0  0  0
    6.7147   -1.8962    1.5734 C   0  0  0  0  0
    4.3960   -1.8325    0.8977 C   0  0  0  0  0
   -0.9783    1.2023    1.4769 C   0  0  0  0  0
    4.2266   -3.1390    1.3560 C   0  0  0  0  0
    5.6401   -1.2111    1.0064 C   0  0  0  0  0
   -1.1061    2.2735    0.5758 C   0  0  0  0  0
   -2.2539    1.0104    1.9377 C   0  0  0  0  0
    3.2518   -1.1029    0.2931 C   0  0  0  0  0
   -0.0513    2.9164   -0.2258 C   0  0  0  0  0
   -2.8635    0.0743    2.8913 C   0  0  0  0  0
    0.0418   -1.2957   -0.0054 C   0  0  0  0  0
    0.2688    0.4387    1.8528 C   0  0  0  0  0
    0.9475   -0.2593    0.6602 C   0  0  0  0  0
   -2.3647    2.7123    0.4847 N   0  0  0  0  0
    2.1644   -0.9363    1.1178 N   0  0  0  0  0
    3.3310   -0.7224   -0.8720 O   0  0  0  0  0
   -3.0904    1.9055    1.3529 O   0  0  0  0  0
    3.0193   -3.7650    1.2605 O   0  0  0  0  0
    5.8275    0.0651    0.5658 O   0  0  0  0  0
  1  2  1  0  0  0
  3  7  1  0  0  0
  4  6  1  0  0  0
  4 10  1  0  0  0
  5  8  1  0  0  0
  6 20  1  0  0  0
  7 21  1  0  0  0
  9 19  1  0  0  0
 10 17  1  0  0  0
 11  8  1  0  0  0
 12  9  1  0  0  0
 13 15  1  0  0  0
 14  5  1  0  0  0
 14 15  1  0  0  0
 15 17  1  0  0  0
 16 19  1  0  0  0
  1  3  2  0  0  0
  2  6  2  0  0  0
  4  7  2  0  0  0
  5  9  2  0  0  0
  8 16  2  0  0  0
 10 18  2  0  0  0
M  END
> <rmsd>
0.496278048

$$$$
ZINC67803476


 21 22  0  0  0  0  0  0  0  0999 V2000
    6.3685   -2.9893    2.3294 C   0  0  0  0  0
    5.1536   -3.6514    2.1528 C   0  0  0  0  0
    6.5509   -1.7128    1.7976 C   0  0  0  0  0
    0.6386    2.0718    1.3122 C   0  0  0  0  0
    4.3034   -1.7604    0.9125 C   0  0  0  0  0
    4.1210   -3.0370    1.4443 C   0  0  0  0  0
    5.5183   -1.0983    1.0892 C   0  0  0  0  0
    0.8139    3.3146    0.6793 C   0  0  0  0  0
    0.8669    1.1626    0.3135 C   0  0  0  0  0
    3.2044   -1.1060    0.1568 C   0  0  0  0  0
    3.1029    5.3470    0.8132 C   0  0  0  0  0
    1.7629    6.6039    2.5128 C   0  0  0  0  0
    0.6886    4.6895    1.2893 C   0  0  0  0  0
    0.8584   -0.3040    0.2530 C   0  0  0  0  0
    2.0062    5.2336    1.8751 C   0  0  0  0  0
    1.1269    3.1860   -0.6131 N   0  0  0  0  0
    2.0294   -0.9075    0.8590 N   0  0  0  0  0
    3.3828   -0.8035   -1.0202 O   0  0  0  0  0
    1.1594    1.8154   -0.8404 O   0  0  0  0  0
    2.9422   -3.7023    1.2831 O   0  0  0  0  0
    5.7180    0.1494    0.5783 O   0  0  0  0  0
  1  2  1  0  0  0
  3  7  1  0  0  0
  4  8  1  0  0  0
  5  6  1  0  0  0
  5 10  1  0  0  0
  6 20  1  0  0  0
  7 21  1  0  0  0
  9 19  1  0  0  0
 10 17  1  0  0  0
 11 15  1  0  0  0
 12 15  1  0  0  0
 13  8  1  0  0  0
 13 15  1  0  0  0
 14  9  1  0  0  0
 14 17  1  0  0  0
 16 19  1  0  0  0
  1  3  2  0  0  0
  2  6  2  0  0  0
  4  9  2  0  0  0
  5  7  2  0  0  0
  8 16  2  0  0  0
 10 18  2  0  0  0
M  END
> <rmsd>
0.270676196

$$$$
ZINC92123784


 21 22  0  0  0  0  0  0  0  0999 V2000
    6.3429   -2.9665    2.3656 C   0  0  0  0  0
    5.1307   -3.6311    2.1804 C   0  0  0  0  0
    6.5307   -1.6945    1.8249 C   0  0  0  0  0
    0.4963    3.2155    0.5498 C   0  0  0  0  0
    4.2939   -1.7517    0.9135 C   0  0  0  0  0
    4.1062   -3.0238    1.4543 C   0  0  0  0  0
    5.5063   -1.0871    1.0989 C   0  0  0  0  0
    1.6714    3.1043   -0.1511 C   0  0  0  0  0
    0.8629    1.1657    0.2545 C   0  0  0  0  0
    3.2031   -1.1049    0.1397 C   0  0  0  0  0
    2.7233    5.3721    0.1589 C   0  0  0  0  0
    2.2976    4.4898   -2.1598 C   0  0  0  0  0
    4.1381    3.5533   -0.7751 C   0  0  0  0  0
    0.8556   -0.3041    0.2023 C   0  0  0  0  0
    2.6943    4.1021   -0.7187 C   0  0  0  0  0
   -0.0173    1.9700    0.8066 N   0  0  0  0  0
    2.0191   -0.9008    0.8264 N   0  0  0  0  0
    3.3946   -0.8126   -1.0378 O   0  0  0  0  0
    1.9182    1.7791   -0.3478 O   0  0  0  0  0
    2.9293   -3.6908    1.2864 O   0  0  0  0  0
    5.7107    0.1567    0.5799 O   0  0  0  0  0
  1  2  1  0  0  0
  3  7  1  0  0  0
  4 16  1  0  0  0
  5  6  1  0  0  0
  5 10  1  0  0  0
  6 20  1  0  0  0
  7 21  1  0  0  0
  8 19  1  0  0  0
  9 19  1  0  0  0
 10 17  1  0  0  0
 11 15  1  0  0  0
 12 15  1  0  0  0
 13 15  1  0  0  0
 14  9  1  0  0  0
 14 17  1  0  0  0
 15  8  1  0  0  0
  1  3  2  0  0  0
  2  6  2  0  0  0
  4  8  2  0  0  0
  5  7  2  0  0  0
  9 16  2  0  0  0
 10 18  2  0  0  0
M  END
> <rmsd>
0.290022075

$$$$
ZINC92123784


 21 22  0  0  0  0  0  0  0  0999 V2000
    6.3531   -2.9833    2.3460 C   0  0  0  0  0
    5.1373   -3.6427    2.1656 C   0  0  0  0  0
    6.5420   -1.7095    1.8100 C   0  0  0  0  0
    0.7859    3.2173    0.7951 C   0  0  0  0  0
    4.2992   -1.7546    0.9126 C   0  0  0  0  0
    4.1104   -3.0285    1.4488 C   0  0  0  0  0
    5.5151   -1.0952    1.0932 C   0  0  0  0  0
    1.1154    3.1374   -0.5351 C   0  0  0  0  0
    0.8746    1.1779    0.2887 C   0  0  0  0  0
    3.2059   -1.1005    0.1487 C   0  0  0  0  0
    2.6246    5.0270   -1.2405 C   0  0  0  0  0
    0.1820    5.0751   -1.8470 C   0  0  0  0  0
    1.7379    3.5253   -3.0126 C   0  0  0  0  0
    0.8617   -0.2916    0.2298 C   0  0  0  0  0
    1.4105    4.1621   -1.6429 C   0  0  0  0  0
    0.6326    1.9585    1.3176 N   0  0  0  0  0
    2.0270   -0.8953    0.8438 N   0  0  0  0  0
    3.3910   -0.8034   -1.0286 O   0  0  0  0  0
    1.1755    1.8193   -0.8736 O   0  0  0  0  0
    2.9301   -3.6906    1.2853 O   0  0  0  0  0
    5.7207    0.1502    0.5787 O   0  0  0  0  0
  1  2  1  0  0  0
  3  7  1  0  0  0
  4 16  1  0  0  0
  5  6  1  0  0  0
  5 10  1  0  0  0
  6 20  1  0  0  0
  7 21  1  0  0  0
  8 19  1  0  0  0
  9 19  1  0  0  0
 10 17  1  0  0  0
 11 15  1  0  0  0
 12 15  1  0  0  0
 13 15  1  0  0  0
 14  9  1  0  0  0
 14 17  1  0  0  0
 15  8  1  0  0  0
  1  3  2  0  0  0
  2  6  2  0  0  0
  4  8  2  0  0  0
  5  7  2  0  0  0
  9 16  2  0  0  0
 10 18  2  0  0  0
M  END
> <rmsd>
0.267994612

$$$$
ZINC67677263


 21 22  0  0  0  0  0  0  0  0999 V2000
    6.3242   -2.9466    2.4084 C   0  0  0  0  0
    5.1155   -3.6152    2.2142 C   0  0  0  0  0
    6.5171   -1.6801    1.8566 C   0  0  0  0  0
    0.6083    3.2821   -0.2807 C   0  0  0  0  0
    4.2927   -1.7510    0.9162 C   0  0  0  0  0
    4.0998   -3.0174    1.4680 C   0  0  0  0  0
    5.5013   -1.0823    1.1105 C   0  0  0  0  0
    0.8887    1.1944    0.2411 C   0  0  0  0  0
    3.2315   -1.1259    0.1349 C   0  0  0  0  0
    0.2244    0.8201   -4.3402 C   0  0  0  0  0
   -0.4275   -0.9154    0.6972 C   0  0  0  0  0
    0.8665    1.2048   -3.0175 C   0  0  0  0  0
   -0.1823    1.6347   -1.9943 C   0  0  0  0  0
    0.8628   -0.3157    0.1423 C   0  0  0  0  0
    1.1734    3.2440    0.9049 N   0  0  0  0  0
    1.3518    1.9158    1.2368 N   0  0  0  0  0
    0.4108    2.0138   -0.7361 N   0  0  0  0  0
    2.0152   -0.9033    0.7868 N   0  0  0  0  0
    3.4192   -0.8343   -1.0574 O   0  0  0  0  0
    2.9269   -3.6889    1.2902 O   0  0  0  0  0
    5.7112    0.1558    0.5806 O   0  0  0  0  0
  1  2  1  0  0  0
  3  7  1  0  0  0
  4 17  1  0  0  0
  5  6  1  0  0  0
  5  9  1  0  0  0
  6 20  1  0  0  0
  7 21  1  0  0  0
  8 17  1  0  0  0
  9 18  1  0  0  0
 10 12  1  0  0  0
 11 14  1  0  0  0
 12 13  1  0  0  0
 13 17  1  0  0  0
 14  8  1  0  0  0
 14 18  1  0  0  0
 15 16  1  0  0  0
  1  3  2  0  0  0
  2  6  2  0  0  0
  4 15  2  0  0  0
  5  7  2  0  0  0
  8 16  2  0  0  0
  9 19  2  0  0  0
M  END
> <rmsd>
0.265982628

$$$$
ZINC92125313


 20 22  0  0  0  0  0  0  0  0999 V2000
    6.3368   -2.9513    2.3962 C   0  0  0  0  0
    5.1292   -3.6222    2.2038 C   0  0  0  0  0
    6.5248   -1.6824    1.8479 C   0  0  0  0  0
    1.0467    3.5255   -0.2321 C   0  0  0  0  0
    4.2973   -1.7556    0.9150 C   0  0  0  0  0
    4.1095   -3.0245    1.4632 C   0  0  0  0  0
    5.5050   -1.0847    1.1074 C   0  0  0  0  0
    0.6853    3.2026    1.0591 C   0  0  0  0  0
    0.8691    1.1722    0.2504 C   0  0  0  0  0
    3.2314   -1.1306    0.1401 C   0  0  0  0  0
    1.4561    5.3002    2.4257 C   0  0  0  0  0
    1.1608    4.2247    3.4236 C   0  0  0  0  0
    0.4143    4.2525    2.1105 C   0  0  0  0  0
    0.8607   -0.3264    0.1595 C   0  0  0  0  0
    0.5825    1.8536    1.3375 N   0  0  0  0  0
    2.0172   -0.9133    0.7976 N   0  0  0  0  0
    3.4136   -0.8346   -1.0519 O   0  0  0  0  0
    2.9370   -3.6976    1.2886 O   0  0  0  0  0
    5.7095    0.1561    0.5814 O   0  0  0  0  0
    1.2714    2.0898   -1.1428 S   0  0  0  0  0
  1  2  1  0  0  0
  3  7  1  0  0  0
  4 20  1  0  0  0
  5  6  1  0  0  0
  5 10  1  0  0  0
  6 18  1  0  0  0
  7 19  1  0  0  0
  8 15  1  0  0  0
  9 20  1  0  0  0
 10 16  1  0  0  0
 11 12  1  0  0  0
 11 13  1  0  0  0
 12 13  1  0  0  0
 13  8  1  0  0  0
 14  9  1  0  0  0
 14 16  1  0  0  0
  1  3  2  0  0  0
  2  6  2  0  0  0
  4  8  2  0  0  0
  5  7  2  0  0  0
  9 15  2  0  0  0
 10 17  2  0  0  0
M  END
> <rmsd>
0.269030869

$$$$
ZINC92122924


 21 22  0  0  0  0  0  0  0  0999 V2000
    6.3318   -2.9553    2.3948 C   0  0  0  0  0
    5.1218   -3.6222    2.2032 C   0  0  0  0  0
    6.5236   -1.6870    1.8466 C   0  0  0  0  0
    0.7132    3.2557    0.9471 C   0  0  0  0  0
    1.0711    3.2927   -0.3710 C   0  0  0  0  0
    4.2954   -1.7527    0.9150 C   0  0  0  0  0
    4.1036   -3.0210    1.4633 C   0  0  0  0  0
    5.5054   -1.0858    1.1067 C   0  0  0  0  0
    0.8716    1.1696    0.2234 C   0  0  0  0  0
    3.2113   -1.1125    0.1264 C   0  0  0  0  0
    2.5966    1.5200    3.5345 C   0  0  0  0  0
    0.6353    1.4034    5.0855 C   0  0  0  0  0
    0.8628   -0.3130    0.1613 C   0  0  0  0  0
    0.2265    1.4321    2.6096 C   0  0  0  0  0
    1.1386    1.9357    3.7424 C   0  0  0  0  0
    0.5963    1.9298    1.2883 N   0  0  0  0  0
    1.1621    1.9882   -0.7930 N   0  0  0  0  0
    2.0168   -0.9023    0.7982 N   0  0  0  0  0
    3.4135   -0.8286   -1.0514 O   0  0  0  0  0
    2.9288   -3.6902    1.2892 O   0  0  0  0  0
    5.7137    0.1543    0.5806 O   0  0  0  0  0
  1  2  1  0  0  0
  3  8  1  0  0  0
  4 16  1  0  0  0
  5 17  1  0  0  0
  6  7  1  0  0  0
  6 10  1  0  0  0
  7 20  1  0  0  0
  8 21  1  0  0  0
  9 16  1  0  0  0
 10 18  1  0  0  0
 11 15  1  0  0  0
 12 15  1  0  0  0
 13  9  1  0  0  0
 13 18  1  0  0  0
 14 15  1  0  0  0
 14 16  1  0  0  0
  1  3  2  0  0  0
  2  7  2  0  0  0
  4  5  2  0  0  0
  6  8  2  0  0  0
  9 17  2  0  0  0
 10 19  2  0  0  0
M  CHG  1  17   1
M  END
> <rmsd>
0.263634145

$$$$
ZINC89675084


 21 22  0  0  0  0  0  0  0  0999 V2000
    2.3679   -2.6199   -2.0996 C   0  0  0  0  0
    2.4737   -3.3275   -0.9073 C   0  0  0  0  0
    1.9637    4.5378    1.9567 C   0  0  0  0  0
    2.5768    4.1956    3.1857 C   0  0  0  0  0
    2.9768   -1.3774   -2.1726 C   0  0  0  0  0
    3.1752   -2.7787    0.1604 C   0  0  0  0  0
    3.7482   -1.5292   -0.0139 C   0  0  0  0  0
    1.1922    3.4561    1.6006 C   0  0  0  0  0
    2.1361    2.9294    3.4930 C   0  0  0  0  0
    4.5101   -0.8802    1.0786 C   0  0  0  0  0
    0.3187    3.1780    0.4518 C   0  0  0  0  0
    1.1320    1.6033    5.3972 C   0  0  0  0  0
    5.0730   -0.3818    3.3136 C   0  0  0  0  0
    4.4440    0.9573    3.6476 C   0  0  0  0  0
    2.4042    1.9940    4.6494 C   0  0  0  0  0
    3.6667   -0.8118   -1.1569 N   0  0  0  0  0
    4.2541   -1.0787    2.3191 N   0  0  0  0  0
    3.0956    0.7448    4.2292 N   0  0  0  0  0
    1.2917    2.4715    2.5319 O   0  0  0  0  0
    3.2841   -3.4629    1.3279 O   0  0  0  0  0
    5.4803   -0.0740    0.5901 O   0  0  0  0  0
  1  2  1  0  0  0
  3  4  1  0  0  0
  5 16  1  0  0  0
  6  7  1  0  0  0
  6 20  1  0  0  0
  7 10  1  0  0  0
  8 19  1  0  0  0
  9 19  1  0  0  0
 10 21  1  0  0  0
 11  8  1  0  0  0
 12 15  1  0  0  0
 13 14  1  0  0  0
 13 17  1  0  0  0
 14 18  1  0  0  0
 15  9  1  0  0  0
 15 18  1  0  0  0
  1  5  2  0  0  0
  2  6  2  0  0  0
  3  8  2  0  0  0
  4  9  2  0  0  0
  7 16  2  0  0  0
 10 17  2  0  0  0
M  CHG  1  18   1
M  END
> <rmsd>
0.468929887

$$$$
ZINC92122924


 21 22  0  0  0  0  0  0  0  0999 V2000
    6.3288   -2.9516    2.4004 C   0  0  0  0  0
    5.1193   -3.6193    2.2076 C   0  0  0  0  0
    6.5210   -1.6841    1.8506 C   0  0  0  0  0
    0.2464    3.2898    0.1271 C   0  0  0  0  0
    1.5641    3.2522    0.4861 C   0  0  0  0  0
    4.2944   -1.7522    0.9153 C   0  0  0  0  0
    4.1022   -3.0197    1.4650 C   0  0  0  0  0
    5.5038   -1.0844    1.1081 C   0  0  0  0  0
    0.8705    1.1677    0.2134 C   0  0  0  0  0
    3.2114   -1.1136    0.1238 C   0  0  0  0  0
   -2.4233    1.6145    1.9493 C   0  0  0  0  0
   -3.9748    1.6390   -0.0149 C   0  0  0  0  0
    0.8625   -0.3150    0.1535 C   0  0  0  0  0
   -1.4996    1.5647   -0.4223 C   0  0  0  0  0
   -2.6088    2.0896    0.5065 C   0  0  0  0  0
   -0.1568    1.9864   -0.0356 N   0  0  0  0  0
    1.9239    1.9268    0.5321 N   0  0  0  0  0
    2.0156   -0.9027    0.7933 N   0  0  0  0  0
    3.4155   -0.8313   -1.0540 O   0  0  0  0  0
    2.9280   -3.6897    1.2899 O   0  0  0  0  0
    5.7125    0.1550    0.5806 O   0  0  0  0  0
  1  2  1  0  0  0
  3  8  1  0  0  0
  4 16  1  0  0  0
  5 17  1  0  0  0
  6  7  1  0  0  0
  6 10  1  0  0  0
  7 20  1  0  0  0
  8 21  1  0  0  0
  9 16  1  0  0  0
 10 18  1  0  0  0
 11 15  1  0  0  0
 12 15  1  0  0  0
 13  9  1  0  0  0
 13 18  1  0  0  0
 14 15  1  0  0  0
 14 16  1  0  0  0
  1  3  2  0  0  0
  2  7  2  0  0  0
  4  5  2  0  0  0
  6  8  2  0  0  0
  9 17  2  0  0  0
 10 19  2  0  0  0
M  CHG  1  17   1
M  END
> <rmsd>
0.265912384

$$$$
ZINC94336601


 20 21  0  0  0  0  0  0  0  0999 V2000
    2.1803   -0.4178    2.0131 C   0  0  0  0  0
    1.3020    0.6478    1.8503 C   0  0  0  0  0
    2.9906   -0.8116    0.9540 C   0  0  0  0  0
    1.2724    1.2814    0.6185 C   0  0  0  0  0
    2.8852   -0.1128   -0.2378 C   0  0  0  0  0
    3.9120   -1.9253    1.1172 C   0  0  0  0  0
    2.2057   -2.1296   -2.2118 C   0  0  0  0  0
    3.2769   -3.1965   -2.3209 C   0  0  0  0  0
    3.9854   -1.3308   -3.5302 C   0  0  0  0  0
    2.9848   -0.8684   -2.4905 C   0  0  0  0  0
    0.3418    2.4290    0.4088 C   0  0  0  0  0
    2.0441    0.9273   -0.4335 N   0  0  0  0  0
    5.1938   -1.6590    0.9401 N   0  0  0  0  0
    3.4837   -3.2160    1.4422 N   0  0  0  0  0
    4.2436   -2.7206   -3.2670 O   0  0  0  0  0
    5.4101   -0.3147    0.6209 O   0  0  0  0  0
    3.6651   -0.4692   -1.3057 O   0  0  0  0  0
   -0.4069    2.7338    1.5096 F   0  0  0  0  0
    0.9754    3.5918    0.0754 F   0  0  0  0  0
   -0.5557    2.2000   -0.5932 F   0  0  0  0  0
  1  2  1  0  0  0
  3  5  1  0  0  0
  3  6  1  0  0  0
  4 12  1  0  0  0
  5 17  1  0  0  0
  6 14  1  0  0  0
  7  8  1  0  0  0
  7 10  1  0  0  0
  8 15  1  0  0  0
  9 10  1  0  0  0
  9 15  1  0  0  0
 10 17  1  0  0  0
 11  4  1  0  0  0
 11 18  1  0  0  0
 11 19  1  0  0  0
 11 20  1  0  0  0
 13 16  1  0  0  0
  1  3  2  0  0  0
  2  4  2  0  0  0
  5 12  2  0  0  0
  6 13  2  0  0  0
M  END
> <rmsd>
0.454749227

$$$$
ZINC92122984


 21 22  0  0  0  0  0  0  0  0999 V2000
    6.3830   -3.1768    2.1836 C   0  0  0  0  0
    5.1173   -3.7467    2.0473 C   0  0  0  0  0
    6.6304   -1.8992    1.6812 C   0  0  0  0  0
    1.6984    2.3771    4.2407 C   0  0  0  0  0
    2.1825    2.3666    2.9108 C   0  0  0  0  0
    4.3463   -1.7616    0.9060 C   0  0  0  0  0
    4.0989   -3.0391    1.4085 C   0  0  0  0  0
    5.6122   -1.1917    1.0424 C   0  0  0  0  0
    0.4459    1.8104    4.1958 C   0  0  0  0  0
    1.1915    1.7940    2.1480 C   0  0  0  0  0
    3.2621   -1.0081    0.2249 C   0  0  0  0  0
   -0.5697    1.5320    5.2210 C   0  0  0  0  0
   -0.1328    2.2202    0.0326 C   0  0  0  0  0
    0.9860   -0.0491    0.4603 C   0  0  0  0  0
    1.0673    1.4836    0.6526 C   0  0  0  0  0
    2.1479   -0.7576    0.9943 N   0  0  0  0  0
    3.4057   -0.6805   -0.9499 O   0  0  0  0  0
    0.1294    1.4521    2.9237 O   0  0  0  0  0
    2.8691   -3.6148    1.2870 O   0  0  0  0  0
    5.8755    0.0555    0.5596 O   0  0  0  0  0
    2.2375    1.9583   -0.0277 O   0  0  0  0  0
  1  2  1  0  0  0
  3  8  1  0  0  0
  4  5  1  0  0  0
  6  7  1  0  0  0
  6 11  1  0  0  0
  7 19  1  0  0  0
  8 20  1  0  0  0
  9 18  1  0  0  0
 10 18  1  0  0  0
 11 16  1  0  0  0
 12  9  1  0  0  0
 13 15  1  0  0  0
 14 15  1  0  0  0
 14 16  1  0  0  0
 15 10  1  0  0  0
 15 21  1  0  0  0
  1  3  2  0  0  0
  2  7  2  0  0  0
  4  9  2  0  0  0
  5 10  2  0  0  0
  6  8  2  0  0  0
 11 17  2  0  0  0
M  END
> <rmsd>
0.384020746

$$$$
ZINC92122984


 21 22  0  0  0  0  0  0  0  0999 V2000
    6.3823   -3.1763    2.1833 C   0  0  0  0  0
    5.1166   -3.7462    2.0470 C   0  0  0  0  0
    6.6298   -1.8987    1.6809 C   0  0  0  0  0
    1.0405    2.1034    4.3519 C   0  0  0  0  0
    0.3521    1.6031    3.2210 C   0  0  0  0  0
    4.3457   -1.7612    0.9057 C   0  0  0  0  0
    4.0982   -3.0387    1.4082 C   0  0  0  0  0
    5.6115   -1.1913    1.0421 C   0  0  0  0  0
    2.2508    2.5647    3.8892 C   0  0  0  0  0
    1.1908    1.7945    2.1478 C   0  0  0  0  0
    3.2614   -1.0077    0.2246 C   0  0  0  0  0
    3.4061    3.1922    4.5461 C   0  0  0  0  0
   -0.1335    2.2207    0.0323 C   0  0  0  0  0
    0.9853   -0.0487    0.4600 C   0  0  0  0  0
    1.0667    1.4840    0.6524 C   0  0  0  0  0
    2.1473   -0.7571    0.9940 N   0  0  0  0  0
    3.4050   -0.6800   -0.9502 O   0  0  0  0  0
    2.3503    2.3801    2.5465 O   0  0  0  0  0
    2.8685   -3.6143    1.2867 O   0  0  0  0  0
    5.8748    0.0560    0.5593 O   0  0  0  0  0
    2.2368    1.9588   -0.0279 O   0  0  0  0  0
  1  2  1  0  0  0
  3  8  1  0  0  0
  4  5  1  0  0  0
  6  7  1  0  0  0
  6 11  1  0  0  0
  7 19  1  0  0  0
  8 20  1  0  0  0
  9 18  1  0  0  0
 10 18  1  0  0  0
 11 16  1  0  0  0
 12  9  1  0  0  0
 13 15  1  0  0  0
 14 15  1  0  0  0
 14 16  1  0  0  0
 15 10  1  0  0  0
 15 21  1  0  0  0
  1  3  2  0  0  0
  2  7  2  0  0  0
  4  9  2  0  0  0
  5 10  2  0  0  0
  6  8  2  0  0  0
 11 17  2  0  0  0
M  END
> <rmsd>
0.384020776

$$$$
ZINC92122404


 21 22  0  0  0  0  0  0  0  0999 V2000
    6.3320   -2.9666    2.3804 C   0  0  0  0  0
    5.1179   -3.6269    2.1925 C   0  0  0  0  0
    6.5274   -1.6975    1.8354 C   0  0  0  0  0
    4.2944   -1.7493    0.9143 C   0  0  0  0  0
    4.0991   -3.0183    1.4594 C   0  0  0  0  0
    5.5086   -1.0889    1.1023 C   0  0  0  0  0
    0.8775    1.1758    0.2225 C   0  0  0  0  0
    1.0666    3.1430   -0.3892 C   0  0  0  0  0
    3.2097   -1.1012    0.1329 C   0  0  0  0  0
    1.6425    4.2613   -2.5718 C   0  0  0  0  0
    2.4005    5.2802   -0.3983 C   0  0  0  0  0
    0.0121    5.3988   -1.0786 C   0  0  0  0  0
    0.8653   -0.2906    0.1818 C   0  0  0  0  0
    1.2662    4.4956   -1.0927 C   0  0  0  0  0
    1.1740    1.9318   -0.8742 N   0  0  0  0  0
    0.5974    1.8558    1.3383 N   0  0  0  0  0
    2.0247   -0.8901    0.8141 N   0  0  0  0  0
    3.4077   -0.8145   -1.0448 O   0  0  0  0  0
    0.7254    3.1879    0.9253 O   0  0  0  0  0
    2.9202   -3.6813    1.2889 O   0  0  0  0  0
    5.7205    0.1518    0.5792 O   0  0  0  0  0
  1  2  1  0  0  0
  3  6  1  0  0  0
  4  5  1  0  0  0
  4  9  1  0  0  0
  5 20  1  0  0  0
  6 21  1  0  0  0
  7 15  1  0  0  0
  8 19  1  0  0  0
  9 17  1  0  0  0
 10 14  1  0  0  0
 11 14  1  0  0  0
 12 14  1  0  0  0
 13  7  1  0  0  0
 13 17  1  0  0  0
 14  8  1  0  0  0
 16 19  1  0  0  0
  1  3  2  0  0  0
  2  5  2  0  0  0
  4  6  2  0  0  0
  7 16  2  0  0  0
  8 15  2  0  0  0
  9 18  2  0  0  0
M  END
> <rmsd>
0.26143539

$$$$
ZINC92122404


 21 22  0  0  0  0  0  0  0  0999 V2000
    6.3294   -2.9647    2.3852 C   0  0  0  0  0
    5.1155   -3.6252    2.1964 C   0  0  0  0  0
    6.5255   -1.6962    1.8391 C   0  0  0  0  0
    4.2938   -1.7490    0.9150 C   0  0  0  0  0
    4.0977   -3.0174    1.4612 C   0  0  0  0  0
    5.5078   -1.0884    1.1039 C   0  0  0  0  0
    0.8779    1.1754    0.2153 C   0  0  0  0  0
    0.7202    3.1093    0.9330 C   0  0  0  0  0
    3.2102   -1.1018    0.1314 C   0  0  0  0  0
    0.1588    4.1168    3.1725 C   0  0  0  0  0
   -0.5782    5.2647    1.0570 C   0  0  0  0  0
    1.8105    5.3065    1.7448 C   0  0  0  0  0
    0.8658   -0.2910    0.1762 C   0  0  0  0  0
    0.5417    4.4248    1.7087 C   0  0  0  0  0
    0.5918    1.8755    1.3512 N   0  0  0  0  0
    1.1711    1.9103   -0.8616 N   0  0  0  0  0
    2.0243   -0.8899    0.8107 N   0  0  0  0  0
    3.4098   -0.8164   -1.0463 O   0  0  0  0  0
    1.0645    3.2200   -0.3769 O   0  0  0  0  0
    2.9190   -3.6805    1.2898 O   0  0  0  0  0
    5.7204    0.1517    0.5798 O   0  0  0  0  0
  1  2  1  0  0  0
  3  6  1  0  0  0
  4  5  1  0  0  0
  4  9  1  0  0  0
  5 20  1  0  0  0
  6 21  1  0  0  0
  7 15  1  0  0  0
  8 19  1  0  0  0
  9 17  1  0  0  0
 10 14  1  0  0  0
 11 14  1  0  0  0
 12 14  1  0  0  0
 13  7  1  0  0  0
 13 17  1  0  0  0
 14  8  1  0  0  0
 16 19  1  0  0  0
  1  3  2  0  0  0
  2  5  2  0  0  0
  4  6  2  0  0  0
  7 16  2  0  0  0
  8 15  2  0  0  0
  9 18  2  0  0  0
M  END
> <rmsd>
0.260830969

$$$$
ZINC92122849


 21 22  0  0  0  0  0  0  0  0999 V2000
    6.3825   -3.1768    2.1831 C   0  0  0  0  0
    5.1168   -3.7468    2.0469 C   0  0  0  0  0
    6.6300   -1.8993    1.6808 C   0  0  0  0  0
    0.2476    1.5458    3.1625 C   0  0  0  0  0
    2.2512    2.3754    2.7990 C   0  0  0  0  0
    4.3459   -1.7617    0.9056 C   0  0  0  0  0
    1.1910    1.7939    2.1476 C   0  0  0  0  0
    4.0985   -3.0392    1.4080 C   0  0  0  0  0
    5.6117   -1.1918    1.0420 C   0  0  0  0  0
    3.2617   -1.0082    0.2245 C   0  0  0  0  0
   -0.1332    2.2201    0.0321 C   0  0  0  0  0
    2.6865    2.9726    5.1933 C   0  0  0  0  0
    0.9855   -0.0492    0.4598 C   0  0  0  0  0
    1.0669    1.4835    0.6522 C   0  0  0  0  0
    0.6711    1.9374    4.3672 N   0  0  0  0  0
    1.8925    2.4374    4.1134 N   0  0  0  0  0
    2.1475   -0.7577    0.9938 N   0  0  0  0  0
    3.4052   -0.6805   -0.9504 O   0  0  0  0  0
    2.8687   -3.6148    1.2866 O   0  0  0  0  0
    5.8751    0.0554    0.5592 O   0  0  0  0  0
    2.2371    1.9582   -0.0281 O   0  0  0  0  0
  1  2  1  0  0  0
  3  9  1  0  0  0
  4  7  1  0  0  0
  5 16  1  0  0  0
  6  8  1  0  0  0
  6 10  1  0  0  0
  8 19  1  0  0  0
  9 20  1  0  0  0
 10 17  1  0  0  0
 11 14  1  0  0  0
 12 16  1  0  0  0
 13 14  1  0  0  0
 13 17  1  0  0  0
 14  7  1  0  0  0
 14 21  1  0  0  0
 16 15  1  0  0  0
  1  3  2  0  0  0
  2  8  2  0  0  0
  4 15  2  0  0  0
  5  7  2  0  0  0
  6  9  2  0  0  0
 10 18  2  0  0  0
M  END
> <rmsd>
0.384020656

$$$$
ZINC92122849


 21 22  0  0  0  0  0  0  0  0999 V2000
    6.3830   -3.1765    2.1835 C   0  0  0  0  0
    5.1173   -3.7465    2.0473 C   0  0  0  0  0
    6.6304   -1.8989    1.6812 C   0  0  0  0  0
    2.2747    2.3921    2.8196 C   0  0  0  0  0
    0.2670    1.5526    3.1357 C   0  0  0  0  0
    4.3462   -1.7614    0.9062 C   0  0  0  0  0
    1.1913    1.7940    2.1487 C   0  0  0  0  0
    4.0989   -3.0389    1.4086 C   0  0  0  0  0
    5.6121   -1.1914    1.0425 C   0  0  0  0  0
    3.2619   -1.0079    0.2252 C   0  0  0  0  0
   -0.1332    2.2203    0.0334 C   0  0  0  0  0
    0.2358    1.9651    5.6070 C   0  0  0  0  0
    0.9857   -0.0490    0.4608 C   0  0  0  0  0
    1.0671    1.4837    0.6533 C   0  0  0  0  0
    2.0600    2.5229    4.1315 N   0  0  0  0  0
    0.8310    2.0035    4.2927 N   0  0  0  0  0
    2.1478   -0.7574    0.9947 N   0  0  0  0  0
    3.4054   -0.6801   -0.9496 O   0  0  0  0  0
    2.8692   -3.6146    1.2871 O   0  0  0  0  0
    5.8753    0.0559    0.5598 O   0  0  0  0  0
    2.2371    1.9585   -0.0271 O   0  0  0  0  0
  1  2  1  0  0  0
  3  9  1  0  0  0
  4  7  1  0  0  0
  5 16  1  0  0  0
  6  8  1  0  0  0
  6 10  1  0  0  0
  8 19  1  0  0  0
  9 20  1  0  0  0
 10 17  1  0  0  0
 11 14  1  0  0  0
 12 16  1  0  0  0
 13 14  1  0  0  0
 13 17  1  0  0  0
 14  7  1  0  0  0
 14 21  1  0  0  0
 16 15  1  0  0  0
  1  3  2  0  0  0
  2  8  2  0  0  0
  4 15  2  0  0  0
  5  7  2  0  0  0
  6  9  2  0  0  0
 10 18  2  0  0  0
M  END
> <rmsd>
0.384162188

$$$$
ZINC67587453


 21 22  0  0  0  0  0  0  0  0999 V2000
    6.2314   -2.7899    2.5961 C   0  0  0  0  0
    5.0624   -3.5124    2.3569 C   0  0  0  0  0
    6.4150   -1.5428    1.9992 C   0  0  0  0  0
   -1.1998   -0.0031    1.4564 C   0  0  0  0  0
   -1.5969    1.1857    2.0974 C   0  0  0  0  0
    4.2608   -1.7405    0.9234 C   0  0  0  0  0
    4.0772   -2.9878    1.5205 C   0  0  0  0  0
    5.4297   -1.0180    1.1628 C   0  0  0  0  0
   -0.0687    0.3443    0.7589 C   0  0  0  0  0
    3.2313   -1.1918    0.0479 C   0  0  0  0  0
    1.2042    2.4965    0.5069 C   0  0  0  0  0
    0.2196   -3.1191   -2.6362 C   0  0  0  0  0
    0.1011   -1.6180   -0.8320 C   0  0  0  0  0
    0.8400   -0.4735   -0.1334 C   0  0  0  0  0
   -0.7841    2.2116    1.8309 N   0  0  0  0  0
    0.1352    1.6683    1.0149 N   0  0  0  0  0
    1.9679   -0.9875    0.6099 N   0  0  0  0  0
    3.4860   -0.9463   -1.1423 O   0  0  0  0  0
    2.9429   -3.7109    1.3000 O   0  0  0  0  0
    5.6296    0.2025    0.5901 O   0  0  0  0  0
    0.8695   -2.0621   -1.9454 O   0  0  0  0  0
  1  2  1  0  0  0
  3  8  1  0  0  0
  4  5  1  0  0  0
  6  7  1  0  0  0
  6 10  1  0  0  0
  7 19  1  0  0  0
  8 20  1  0  0  0
  9 16  1  0  0  0
 10 17  1  0  0  0
 11 16  1  0  0  0
 12 21  1  0  0  0
 13 14  1  0  0  0
 13 21  1  0  0  0
 14  9  1  0  0  0
 14 17  1  0  0  0
 16 15  1  0  0  0
  1  3  2  0  0  0
  2  7  2  0  0  0
  4  9  2  0  0  0
  5 15  2  0  0  0
  6  8  2  0  0  0
 10 18  2  0  0  0
M  END
> <rmsd>
0.425406098

$$$$
ZINC67587453


 21 22  0  0  0  0  0  0  0  0999 V2000
    6.3389   -2.9564    2.3912 C   0  0  0  0  0
    5.1298   -3.6253    2.2006 C   0  0  0  0  0
    6.5276   -1.6873    1.8441 C   0  0  0  0  0
    1.3577    2.0114    1.2744 C   0  0  0  0  0
    1.1154    3.3136    0.7975 C   0  0  0  0  0
    4.2982   -1.7560    0.9155 C   0  0  0  0  0
    4.1095   -3.0251    1.4628 C   0  0  0  0  0
    5.5073   -1.0871    1.1062 C   0  0  0  0  0
    0.8958    1.1887    0.2763 C   0  0  0  0  0
    3.2322   -1.1285    0.1429 C   0  0  0  0  0
   -0.1675    1.6248   -1.9587 C   0  0  0  0  0
   -1.7747   -2.8439    0.7364 C   0  0  0  0  0
   -0.4217   -0.9224    0.7428 C   0  0  0  0  0
    0.8628   -0.3205    0.1669 C   0  0  0  0  0
    0.5439    3.3226   -0.4097 N   0  0  0  0  0
    0.4234    2.0159   -0.6998 N   0  0  0  0  0
    2.0192   -0.9100    0.8025 N   0  0  0  0  0
    3.4129   -0.8313   -1.0491 O   0  0  0  0  0
    2.9362   -3.6970    1.2884 O   0  0  0  0  0
    5.7130    0.1536    0.5807 O   0  0  0  0  0
   -0.5874   -2.2439    0.2392 O   0  0  0  0  0
  1  2  1  0  0  0
  3  8  1  0  0  0
  4  5  1  0  0  0
  6  7  1  0  0  0
  6 10  1  0  0  0
  7 19  1  0  0  0
  8 20  1  0  0  0
  9 16  1  0  0  0
 10 17  1  0  0  0
 11 16  1  0  0  0
 12 21  1  0  0  0
 13 14  1  0  0  0
 13 21  1  0  0  0
 14  9  1  0  0  0
 14 17  1  0  0  0
 16 15  1  0  0  0
  1  3  2  0  0  0
  2  7  2  0  0  0
  4  9  2  0  0  0
  5 15  2  0  0  0
  6  8  2  0  0  0
 10 18  2  0  0  0
M  END
> <rmsd>
0.26218909

$$$$
ZINC67587450


 21 22  0  0  0  0  0  0  0  0999 V2000
    6.4725   -3.0484    2.1407 C   0  0  0  0  0
    5.2560   -3.7168    2.0033 C   0  0  0  0  0
    6.6115   -1.7468    1.6588 C   0  0  0  0  0
    0.8718    1.7618   -1.0710 C   0  0  0  0  0
    1.3079    3.0768   -0.8218 C   0  0  0  0  0
    4.3174   -1.7820    0.9022 C   0  0  0  0  0
    4.1785   -3.0836    1.3841 C   0  0  0  0  0
    5.5339   -1.1136    1.0395 C   0  0  0  0  0
    1.0832    1.0996    0.1137 C   0  0  0  0  0
    3.1912   -1.1199    0.2535 C   0  0  0  0  0
    2.0065    1.8097    2.3406 C   0  0  0  0  0
   -0.5427   -3.3038   -1.2180 C   0  0  0  0  0
    0.2402   -1.1650   -0.6390 C   0  0  0  0  0
    0.8265   -0.3388    0.5088 C   0  0  0  0  0
    1.7619    3.2423    0.4234 N   0  0  0  0  0
    1.6121    2.0225    0.9673 N   0  0  0  0  0
    2.0318   -0.9537    1.0165 N   0  0  0  0  0
    3.2776   -0.7496   -0.9286 O   0  0  0  0  0
    2.9988   -3.7555    1.2599 O   0  0  0  0  0
    5.6917    0.1585    0.5763 O   0  0  0  0  0
   -0.0071   -2.4913   -0.1837 O   0  0  0  0  0
  1  2  1  0  0  0
  3  8  1  0  0  0
  4  5  1  0  0  0
  6  7  1  0  0  0
  6 10  1  0  0  0
  7 19  1  0  0  0
  8 20  1  0  0  0
  9 16  1  0  0  0
 10 17  1  0  0  0
 11 16  1  0  0  0
 12 21  1  0  0  0
 13 14  1  0  0  0
 13 21  1  0  0  0
 14  9  1  0  0  0
 14 17  1  0  0  0
 16 15  1  0  0  0
  1  3  2  0  0  0
  2  7  2  0  0  0
  4  9  2  0  0  0
  5 15  2  0  0  0
  6  8  2  0  0  0
 10 18  2  0  0  0
M  END
> <rmsd>
0.438200444

$$$$
ZINC92107862


 20 21  0  0  0  0  0  0  0  0999 V2000
    6.5033   -3.0829    2.0764 C   0  0  0  0  0
    5.2818   -3.7449    1.9531 C   0  0  0  0  0
    6.6381   -1.7751    1.6104 C   0  0  0  0  0
    0.7746    1.6348   -1.0903 C   0  0  0  0  0
    4.3297   -1.7913    0.8975 C   0  0  0  0  0
    1.0764    1.1113    0.2000 C   0  0  0  0  0
    4.1950   -3.0992    1.3637 C   0  0  0  0  0
    5.5513   -1.1294    1.0210 C   0  0  0  0  0
    1.0851    2.9731   -1.1913 C   0  0  0  0  0
    1.6064    2.0695    1.0361 C   0  0  0  0  0
    3.1936   -1.1161    0.2806 C   0  0  0  0  0
    0.9218    3.8699   -2.3562 C   0  0  0  0  0
    2.0471    1.9343    2.4428 C   0  0  0  0  0
    0.2301   -1.1548   -0.5400 C   0  0  0  0  0
    0.8373   -0.3305    0.5934 C   0  0  0  0  0
    2.0500   -0.9568    1.0685 N   0  0  0  0  0
    3.2581   -0.7296   -0.8976 O   0  0  0  0  0
    3.0102   -3.7645    1.2541 O   0  0  0  0  0
    5.7047    0.1489    0.5731 O   0  0  0  0  0
    1.7380    3.5929    0.2654 S   0  0  0  0  0
  1  2  1  0  0  0
  3  8  1  0  0  0
  4  6  1  0  0  0
  5  7  1  0  0  0
  5 11  1  0  0  0
  7 18  1  0  0  0
  8 19  1  0  0  0
  9 20  1  0  0  0
 10 20  1  0  0  0
 11 16  1  0  0  0
 12  9  1  0  0  0
 13 10  1  0  0  0
 14 15  1  0  0  0
 15  6  1  0  0  0
 15 16  1  0  0  0
  1  3  2  0  0  0
  2  7  2  0  0  0
  4  9  2  0  0  0
  5  8  2  0  0  0
  6 10  2  0  0  0
 11 17  2  0  0  0
M  END
> <rmsd>
0.427432418

$$$$
ZINC92123055


 20 21  0  0  0  0  0  0  0  0999 V2000
    6.2135   -2.8185    2.5557 C   0  0  0  0  0
   -2.8859    3.4097    2.5274 C   0  0  0  0  0
    5.0267   -3.5146    2.3265 C   0  0  0  0  0
    6.4146   -1.5700    1.9671 C   0  0  0  0  0
   -2.2814    2.3309    1.8198 C   0  0  0  0  0
   -2.1589    3.7705    3.6405 C   0  0  0  0  0
    4.2420   -1.7137    0.9200 C   0  0  0  0  0
    4.0410   -2.9623    1.5087 C   0  0  0  0  0
    5.4288   -1.0176    1.1493 C   0  0  0  0  0
   -1.1150    1.9083    2.4190 C   0  0  0  0  0
    3.1925   -1.1256    0.0484 C   0  0  0  0  0
    1.4257    2.0297    0.4875 C   0  0  0  0  0
   -0.1834    0.8029    1.9852 C   0  0  0  0  0
    0.8329   -0.3686   -0.0763 C   0  0  0  0  0
    0.3365    0.9518    0.5387 C   0  0  0  0  0
    1.9597   -0.9106    0.6456 N   0  0  0  0  0
    3.4542   -0.8855   -1.1274 O   0  0  0  0  0
    2.8885   -3.6594    1.2990 O   0  0  0  0  0
    5.6456    0.2041    0.5848 O   0  0  0  0  0
   -0.7535    2.8104    3.8288 S   0  0  0  0  0
  1  3  1  0  0  0
  2  5  1  0  0  0
  4  9  1  0  0  0
  6 20  1  0  0  0
  7  8  1  0  0  0
  7 11  1  0  0  0
  8 18  1  0  0  0
  9 19  1  0  0  0
 10 20  1  0  0  0
 11 16  1  0  0  0
 12 15  1  0  0  0
 13 10  1  0  0  0
 13 15  1  0  0  0
 14 15  1  0  0  0
 14 16  1  0  0  0
  1  4  2  0  0  0
  2  6  2  0  0  0
  3  8  2  0  0  0
  5 10  2  0  0  0
  7  9  2  0  0  0
 11 17  2  0  0  0
M  END
> <rmsd>
0.490460336

$$$$
ZINC92107863


 20 21  0  0  0  0  0  0  0  0999 V2000
    6.3299   -2.9404    2.4138 C   0  0  0  0  0
    5.1249   -3.6148    2.2176 C   0  0  0  0  0
    6.5182   -1.6735    1.8613 C   0  0  0  0  0
    0.3809    2.0334   -0.7878 C   0  0  0  0  0
    4.2962   -1.7555    0.9162 C   0  0  0  0  0
    0.8795    1.1732    0.2329 C   0  0  0  0  0
    4.1080   -3.0224    1.4689 C   0  0  0  0  0
    5.5014   -1.0811    1.1125 C   0  0  0  0  0
    0.5138    3.3633   -0.4542 C   0  0  0  0  0
    1.3747    1.8786    1.3076 C   0  0  0  0  0
    3.2333   -1.1362    0.1327 C   0  0  0  0  0
    0.1196    4.5525   -1.2405 C   0  0  0  0  0
    1.9755    1.3648    2.5593 C   0  0  0  0  0
   -0.4276   -0.9424    0.6888 C   0  0  0  0  0
    0.8609   -0.3370    0.1355 C   0  0  0  0  0
    2.0150   -0.9187    0.7824 N   0  0  0  0  0
    3.4215   -0.8448   -1.0596 O   0  0  0  0  0
    2.9380   -3.6988    1.2905 O   0  0  0  0  0
    5.7061    0.1578    0.5823 O   0  0  0  0  0
    1.2372    3.5708    1.0839 S   0  0  0  0  0
  1  2  1  0  0  0
  3  8  1  0  0  0
  4  6  1  0  0  0
  5  7  1  0  0  0
  5 11  1  0  0  0
  7 18  1  0  0  0
  8 19  1  0  0  0
  9 20  1  0  0  0
 10 20  1  0  0  0
 11 16  1  0  0  0
 12  9  1  0  0  0
 13 10  1  0  0  0
 14 15  1  0  0  0
 15  6  1  0  0  0
 15 16  1  0  0  0
  1  3  2  0  0  0
  2  7  2  0  0  0
  4  9  2  0  0  0
  5  8  2  0  0  0
  6 10  2  0  0  0
 11 17  2  0  0  0
M  END
> <rmsd>
0.271038055

$$$$
ZINC92102571


 20 21  0  0  0  0  0  0  0  0999 V2000
   -1.1800    0.3759    3.4681 C   0  0  0  0  0
   -1.3482    1.7584    3.3914 C   0  0  0  0  0
    6.4481   -3.0422    2.2493 C   0  0  0  0  0
   -0.4570   -0.2946    2.4815 C   0  0  0  0  0
    5.2328   -3.7079    2.0893 C   0  0  0  0  0
    6.6100   -1.7540    1.7394 C   0  0  0  0  0
   -0.7934    2.4705    2.3280 C   0  0  0  0  0
    4.3415   -1.7973    0.9094 C   0  0  0  0  0
    0.0977    0.4174    1.4182 C   0  0  0  0  0
    4.1796   -3.0855    1.4195 C   0  0  0  0  0
    5.5567   -1.1316    1.0694 C   0  0  0  0  0
   -0.0704    1.8000    1.3413 C   0  0  0  0  0
    3.2404   -1.1466    0.2083 C   0  0  0  0  0
    0.0176   -1.3949   -0.3430 C   0  0  0  0  0
    0.8731   -0.3480    0.3676 C   0  0  0  0  0
    2.0582   -0.9555    0.9292 N   0  0  0  0  0
    3.3667   -0.8072   -0.9794 O   0  0  0  0  0
    3.0003   -3.7540    1.2753 O   0  0  0  0  0
    5.7363    0.1278    0.5798 O   0  0  0  0  0
    0.6015    2.7146    0.0408 Cl  0  0  0  0  0
  1  2  1  0  0  0
  3  5  1  0  0  0
  4  9  1  0  0  0
  6 11  1  0  0  0
  7 12  1  0  0  0
  8 10  1  0  0  0
  8 13  1  0  0  0
 10 18  1  0  0  0
 11 19  1  0  0  0
 12 20  1  0  0  0
 13 16  1  0  0  0
 14 15  1  0  0  0
 15  9  1  0  0  0
 15 16  1  0  0  0
  1  4  2  0  0  0
  2  7  2  0  0  0
  3  6  2  0  0  0
  5 10  2  0  0  0
  8 11  2  0  0  0
  9 12  2  0  0  0
 13 17  2  0  0  0
M  END
> <rmsd>
0.30420813

$$$$
ZINC92102573


 20 21  0  0  0  0  0  0  0  0999 V2000
    0.9136    2.7992   -1.4723 C   0  0  0  0  0
    1.4518    3.7232   -0.5766 C   0  0  0  0  0
    6.5237   -3.0798    2.0663 C   0  0  0  0  0
    0.7173    1.4763   -1.0758 C   0  0  0  0  0
    5.3071   -3.7509    1.9442 C   0  0  0  0  0
    6.6471   -1.7696    1.6038 C   0  0  0  0  0
    1.7938    3.3243    0.7156 C   0  0  0  0  0
    4.3370   -1.8017    0.8968 C   0  0  0  0  0
    1.0594    1.0774    0.2163 C   0  0  0  0  0
    4.2138   -3.1120    1.3594 C   0  0  0  0  0
    5.5537   -1.1306    1.0191 C   0  0  0  0  0
    1.5976    2.0014    1.1120 C   0  0  0  0  0
    3.1941   -1.1336    0.2848 C   0  0  0  0  0
    0.2289   -1.1930   -0.5282 C   0  0  0  0  0
    0.8325   -0.3673    0.6060 C   0  0  0  0  0
    2.0514   -0.9855    1.0762 N   0  0  0  0  0
    3.2525   -0.7431   -0.8924 O   0  0  0  0  0
    3.0339   -3.7861    1.2510 O   0  0  0  0  0
    5.6960    0.1501    0.5746 O   0  0  0  0  0
    2.0326    1.5447    2.7187 Cl  0  0  0  0  0
  1  2  1  0  0  0
  3  5  1  0  0  0
  4  9  1  0  0  0
  6 11  1  0  0  0
  7 12  1  0  0  0
  8 10  1  0  0  0
  8 13  1  0  0  0
 10 18  1  0  0  0
 11 19  1  0  0  0
 12 20  1  0  0  0
 13 16  1  0  0  0
 14 15  1  0  0  0
 15  9  1  0  0  0
 15 16  1  0  0  0
  1  4  2  0  0  0
  2  7  2  0  0  0
  3  6  2  0  0  0
  5 10  2  0  0  0
  8 11  2  0  0  0
  9 12  2  0  0  0
 13 17  2  0  0  0
M  END
> <rmsd>
0.439155936

$$$$
ZINC00189368


 21 22  0  0  0  0  0  0  0  0999 V2000
    0.5144    2.6648   -0.0138 C   0  0  0  0  0
    1.5250    1.9686    0.6914 C   0  0  0  0  0
    5.0530   -3.7001    2.0569 C   0  0  0  0  0
    6.5746   -1.8610    1.6843 C   0  0  0  0  0
    4.2920   -1.7168    0.9061 C   0  0  0  0  0
    6.3211   -3.1352    2.1921 C   0  0  0  0  0
    4.0384   -2.9910    1.4138 C   0  0  0  0  0
    5.5601   -1.1518    1.0413 C   0  0  0  0  0
   -0.2942    1.7022   -0.5720 C   0  0  0  0  0
    1.2616    0.6302    0.5141 C   0  0  0  0  0
    3.2318   -0.9745    0.2334 C   0  0  0  0  0
   -1.4591    1.8028   -1.3831 C   0  0  0  0  0
   -2.9805    3.3420   -2.4460 C   0  0  0  0  0
    1.9420   -0.6286    0.9935 C   0  0  0  0  0
    3.3645   -0.6203   -0.9540 O   0  0  0  0  0
   -2.1195    0.8358   -1.8380 O   0  0  0  0  0
    0.1543    0.4593   -0.2548 O   0  0  0  0  0
    7.3114   -3.8275    2.8187 O   0  0  0  0  0
    2.8069   -3.5622    1.2909 O   0  0  0  0  0
    5.8299    0.0922    0.5538 O   0  0  0  0  0
   -1.8207    3.1097   -1.6395 O   0  0  0  0  0
  1  2  1  0  0  0
  3  6  1  0  0  0
  4  8  1  0  0  0
  5  7  1  0  0  0
  5 11  1  0  0  0
  6 18  1  0  0  0
  7 19  1  0  0  0
  8 20  1  0  0  0
  9 12  1  0  0  0
  9 17  1  0  0  0
 10 17  1  0  0  0
 12 21  1  0  0  0
 13 21  1  0  0  0
 14 10  1  0  0  0
 14 11  1  0  0  0
  1  9  2  0  0  0
  2 10  2  0  0  0
  3  7  2  0  0  0
  4  6  2  0  0  0
  5  8  2  0  0  0
 11 15  2  0  0  0
 12 16  2  0  0  0
M  END
> <rmsd>
0.421990514

$$$$
ZINC00189368


 21 22  0  0  0  0  0  0  0  0999 V2000
    0.5146    2.6643   -0.0135 C   0  0  0  0  0
    1.5252    1.9681    0.6917 C   0  0  0  0  0
    5.0532   -3.7006    2.0571 C   0  0  0  0  0
    6.5748   -1.8615    1.6846 C   0  0  0  0  0
    4.2922   -1.7173    0.9064 C   0  0  0  0  0
    6.3213   -3.1357    2.1923 C   0  0  0  0  0
    4.0386   -2.9915    1.4141 C   0  0  0  0  0
    5.5603   -1.1523    1.0416 C   0  0  0  0  0
   -0.2940    1.7017   -0.5717 C   0  0  0  0  0
    1.2618    0.6297    0.5144 C   0  0  0  0  0
    3.2320   -0.9750    0.2337 C   0  0  0  0  0
   -1.4589    1.8023   -1.3828 C   0  0  0  0  0
   -3.1464    0.5399   -2.5544 C   0  0  0  0  0
    1.9422   -0.6291    0.9938 C   0  0  0  0  0
    3.3647   -0.6208   -0.9537 O   0  0  0  0  0
   -1.9963    2.8725   -1.7619 O   0  0  0  0  0
    0.1545    0.4588   -0.2545 O   0  0  0  0  0
    7.3116   -3.8280    2.8190 O   0  0  0  0  0
    2.8071   -3.5627    1.2912 O   0  0  0  0  0
    5.8301    0.0917    0.5541 O   0  0  0  0  0
   -1.9724    0.5709   -1.7357 O   0  0  0  0  0
  1  2  1  0  0  0
  3  6  1  0  0  0
  4  8  1  0  0  0
  5  7  1  0  0  0
  5 11  1  0  0  0
  6 18  1  0  0  0
  7 19  1  0  0  0
  8 20  1  0  0  0
  9 12  1  0  0  0
  9 17  1  0  0  0
 10 17  1  0  0  0
 12 21  1  0  0  0
 13 21  1  0  0  0
 14 10  1  0  0  0
 14 11  1  0  0  0
  1  9  2  0  0  0
  2 10  2  0  0  0
  3  7  2  0  0  0
  4  6  2  0  0  0
  5  8  2  0  0  0
 11 15  2  0  0  0
 12 16  2  0  0  0
M  END
> <rmsd>
0.421990544

$$$$
ZINC92121708


 20 21  0  0  0  0  0  0  0  0999 V2000
    6.3362   -2.9510    2.3960 C   0  0  0  0  0
    5.1286   -3.6221    2.2038 C   0  0  0  0  0
    6.5239   -1.6821    1.8480 C   0  0  0  0  0
    0.8088    1.9112    1.4333 C   0  0  0  0  0
    4.2964   -1.7555    0.9153 C   0  0  0  0  0
    4.1087   -3.0244    1.4635 C   0  0  0  0  0
    5.5040   -1.0844    1.1076 C   0  0  0  0  0
    0.8819    1.1831    0.2643 C   0  0  0  0  0
    0.9863    3.1982   -0.5953 C   0  0  0  0  0
    3.2303   -1.1306    0.1406 C   0  0  0  0  0
   -0.2646    4.9743   -1.8473 C   0  0  0  0  0
   -0.4270   -0.9318    0.7185 C   0  0  0  0  0
    1.0818    4.2940   -1.5842 C   0  0  0  0  0
    0.8595   -0.3266    0.1604 C   0  0  0  0  0
    0.9832    1.9194   -0.9000 N   0  0  0  0  0
    2.0161   -0.9134    0.7982 N   0  0  0  0  0
    3.4122   -0.8344   -1.0515 O   0  0  0  0  0
    2.9363   -3.6976    1.2889 O   0  0  0  0  0
    5.7083    0.1564    0.5816 O   0  0  0  0  0
    0.8706    3.5867    1.0723 S   0  0  0  0  0
  1  2  1  0  0  0
  3  7  1  0  0  0
  4 20  1  0  0  0
  5  6  1  0  0  0
  5 10  1  0  0  0
  6 18  1  0  0  0
  7 19  1  0  0  0
  8 15  1  0  0  0
  9 20  1  0  0  0
 10 16  1  0  0  0
 11 13  1  0  0  0
 12 14  1  0  0  0
 13  9  1  0  0  0
 14  8  1  0  0  0
 14 16  1  0  0  0
  1  3  2  0  0  0
  2  6  2  0  0  0
  4  8  2  0  0  0
  5  7  2  0  0  0
  9 15  2  0  0  0
 10 17  2  0  0  0
M  END
> <rmsd>
0.272464961

$$$$
ZINC92121284


 20 21  0  0  0  0  0  0  0  0999 V2000
    6.3384   -2.9550    2.3896 C   0  0  0  0  0
    5.1298   -3.6247    2.1989 C   0  0  0  0  0
    6.5262   -1.6855    1.8430 C   0  0  0  0  0
    0.5765    1.9150    1.3889 C   0  0  0  0  0
    4.2968   -1.7555    0.9147 C   0  0  0  0  0
    4.1090   -3.0249    1.4614 C   0  0  0  0  0
    5.5053   -1.0858    1.1054 C   0  0  0  0  0
    0.8694    1.1761    0.2618 C   0  0  0  0  0
    1.1476    3.1830   -0.5779 C   0  0  0  0  0
    3.2297   -1.1284    0.1429 C   0  0  0  0  0
    0.4587    4.2913   -2.7345 C   0  0  0  0  0
    2.8890    4.2341   -2.0668 C   0  0  0  0  0
    0.8597   -0.3223    0.1686 C   0  0  0  0  0
    1.4372    4.2696   -1.5388 C   0  0  0  0  0
    1.1966    1.9016   -0.8671 N   0  0  0  0  0
    2.0170   -0.9111    0.8033 N   0  0  0  0  0
    3.4096   -0.8307   -1.0490 O   0  0  0  0  0
    2.9356   -3.6969    1.2882 O   0  0  0  0  0
    5.7098    0.1556    0.5809 O   0  0  0  0  0
    0.7152    3.5869    1.0330 S   0  0  0  0  0
  1  2  1  0  0  0
  3  7  1  0  0  0
  4 20  1  0  0  0
  5  6  1  0  0  0
  5 10  1  0  0  0
  6 18  1  0  0  0
  7 19  1  0  0  0
  8 15  1  0  0  0
  9 20  1  0  0  0
 10 16  1  0  0  0
 11 14  1  0  0  0
 12 14  1  0  0  0
 13  8  1  0  0  0
 13 16  1  0  0  0
 14  9  1  0  0  0
  1  3  2  0  0  0
  2  6  2  0  0  0
  4  8  2  0  0  0
  5  7  2  0  0  0
  9 15  2  0  0  0
 10 17  2  0  0  0
M  END
> <rmsd>
0.269863188

$$$$
ZINC92125273


 20 21  0  0  0  0  0  0  0  0999 V2000
    6.3358   -2.9511    2.3964 C   0  0  0  0  0
    5.1283   -3.6222    2.2040 C   0  0  0  0  0
    6.5237   -1.6824    1.8481 C   0  0  0  0  0
    1.0526    3.5250   -0.2298 C   0  0  0  0  0
    4.2964   -1.7559    0.9149 C   0  0  0  0  0
    4.1086   -3.0246    1.4633 C   0  0  0  0  0
    5.5040   -1.0847    1.1073 C   0  0  0  0  0
    0.6878    3.2014    1.0603 C   0  0  0  0  0
    0.8679    1.1716    0.2496 C   0  0  0  0  0
    3.2305   -1.1310    0.1397 C   0  0  0  0  0
    1.3830    4.0295    3.3373 C   0  0  0  0  0
   -1.0458    4.0831    2.6639 C   0  0  0  0  0
    0.8598   -0.3270    0.1588 C   0  0  0  0  0
    0.4084    4.1639    2.1443 C   0  0  0  0  0
    0.5810    1.8525    1.3370 N   0  0  0  0  0
    2.0162   -0.9138    0.7970 N   0  0  0  0  0
    3.4128   -0.8351   -1.0522 O   0  0  0  0  0
    2.9362   -3.6979    1.2886 O   0  0  0  0  0
    5.7085    0.1560    0.5812 O   0  0  0  0  0
    1.2752    2.0897   -1.1418 S   0  0  0  0  0
  1  2  1  0  0  0
  3  7  1  0  0  0
  4 20  1  0  0  0
  5  6  1  0  0  0
  5 10  1  0  0  0
  6 18  1  0  0  0
  7 19  1  0  0  0
  8 15  1  0  0  0
  9 20  1  0  0  0
 10 16  1  0  0  0
 11 14  1  0  0  0
 12 14  1  0  0  0
 13  9  1  0  0  0
 13 16  1  0  0  0
 14  8  1  0  0  0
  1  3  2  0  0  0
  2  6  2  0  0  0
  4  8  2  0  0  0
  5  7  2  0  0  0
  9 15  2  0  0  0
 10 17  2  0  0  0
M  END
> <rmsd>
0.269900203

$$$$
ZINC92125273


 20 21  0  0  0  0  0  0  0  0999 V2000
    6.3262   -2.9498    2.4099 C   0  0  0  0  0
    5.1175   -3.6179    2.2150 C   0  0  0  0  0
    6.5201   -1.6835    1.8579 C   0  0  0  0  0
    0.2782    3.5137    0.1834 C   0  0  0  0  0
    4.2965   -1.7538    0.9157 C   0  0  0  0  0
    4.1026   -3.0199    1.4678 C   0  0  0  0  0
    5.5052   -1.0856    1.1107 C   0  0  0  0  0
    1.5819    3.2355    0.5372 C   0  0  0  0  0
    0.8795    1.1814    0.2256 C   0  0  0  0  0
    3.2357   -1.1285    0.1339 C   0  0  0  0  0
    3.8154    4.2226   -0.0881 C   0  0  0  0  0
    3.1296    4.0898    2.3341 C   0  0  0  0  0
    0.8673   -0.3175    0.1403 C   0  0  0  0  0
    2.6129    4.2338    0.8839 C   0  0  0  0  0
    1.9284    1.8987    0.5623 N   0  0  0  0  0
    2.0193   -0.9054    0.7853 N   0  0  0  0  0
    3.4238   -0.8375   -1.0584 O   0  0  0  0  0
    2.9290   -3.6904    1.2907 O   0  0  0  0  0
    5.7157    0.1526    0.5810 O   0  0  0  0  0
   -0.5563    2.0495   -0.1347 S   0  0  0  0  0
  1  2  1  0  0  0
  3  7  1  0  0  0
  4 20  1  0  0  0
  5  6  1  0  0  0
  5 10  1  0  0  0
  6 18  1  0  0  0
  7 19  1  0  0  0
  8 15  1  0  0  0
  9 20  1  0  0  0
 10 16  1  0  0  0
 11 14  1  0  0  0
 12 14  1  0  0  0
 13  9  1  0  0  0
 13 16  1  0  0  0
 14  8  1  0  0  0
  1  3  2  0  0  0
  2  6  2  0  0  0
  4  8  2  0  0  0
  5  7  2  0  0  0
  9 15  2  0  0  0
 10 17  2  0  0  0
M  END
> <rmsd>
0.25378564

$$$$
ZINC92124074


 20 21  0  0  0  0  0  0  0  0999 V2000
    6.3323   -2.9484    2.4038 C   0  0  0  0  0
    5.1251   -3.6196    2.2099 C   0  0  0  0  0
    6.5218   -1.6807    1.8536 C   0  0  0  0  0
    1.2224    3.2046    1.0285 C   0  0  0  0  0
    4.2967   -1.7555    0.9153 C   0  0  0  0  0
    4.1073   -3.0232    1.4657 C   0  0  0  0  0
    5.5039   -1.0843    1.1093 C   0  0  0  0  0
    0.6416    3.5410   -0.1764 C   0  0  0  0  0
    0.8845    1.1825    0.2494 C   0  0  0  0  0
    3.2327   -1.1320    0.1366 C   0  0  0  0  0
    1.3477    5.2911   -1.8271 C   0  0  0  0  0
   -0.4260   -0.9311    0.7047 C   0  0  0  0  0
    0.3469    4.8702   -0.7454 C   0  0  0  0  0
    0.8621   -0.3274    0.1486 C   0  0  0  0  0
    1.3622    1.8526    1.2745 N   0  0  0  0  0
    2.0169   -0.9132    0.7906 N   0  0  0  0  0
    3.4178   -0.8383   -1.0557 O   0  0  0  0  0
    2.9352   -3.6966    1.2895 O   0  0  0  0  0
    5.7098    0.1553    0.5813 O   0  0  0  0  0
    0.2525    2.1146   -1.0455 S   0  0  0  0  0
  1  2  1  0  0  0
  3  7  1  0  0  0
  4 15  1  0  0  0
  5  6  1  0  0  0
  5 10  1  0  0  0
  6 18  1  0  0  0
  7 19  1  0  0  0
  8 20  1  0  0  0
  9 20  1  0  0  0
 10 16  1  0  0  0
 11 13  1  0  0  0
 12 14  1  0  0  0
 13  8  1  0  0  0
 14  9  1  0  0  0
 14 16  1  0  0  0
  1  3  2  0  0  0
  2  6  2  0  0  0
  4  8  2  0  0  0
  5  7  2  0  0  0
  9 15  2  0  0  0
 10 17  2  0  0  0
M  END
> <rmsd>
0.265955329

$$$$
ZINC67804505


 20 21  0  0  0  0  0  0  0  0999 V2000
    6.3382   -2.9542    2.3906 C   0  0  0  0  0
    5.1296   -3.6240    2.2003 C   0  0  0  0  0
    6.5259   -1.6848    1.8437 C   0  0  0  0  0
    0.5762    1.9157    1.3885 C   0  0  0  0  0
    4.2963   -1.7550    0.9159 C   0  0  0  0  0
    4.1086   -3.0244    1.4629 C   0  0  0  0  0
    5.5050   -1.0853    1.1063 C   0  0  0  0  0
    0.8693    1.1768    0.2616 C   0  0  0  0  0
    1.1467    3.1835   -0.5786 C   0  0  0  0  0
    3.2295   -1.1280    0.1438 C   0  0  0  0  0
    3.2403    5.5453   -2.8021 C   0  0  0  0  0
    0.8596   -0.3217    0.1687 C   0  0  0  0  0
    1.4362    4.2700   -1.5398 C   0  0  0  0  0
    2.9463    4.4532   -1.7859 C   0  0  0  0  0
    1.1963    1.9020   -0.8676 N   0  0  0  0  0
    2.0166   -0.9105    0.8037 N   0  0  0  0  0
    3.4097   -0.8305   -1.0482 O   0  0  0  0  0
    2.9357   -3.6970    1.2887 O   0  0  0  0  0
    5.7096    0.1556    0.5810 O   0  0  0  0  0
    0.7143    3.5876    1.0322 S   0  0  0  0  0
  1  2  1  0  0  0
  3  7  1  0  0  0
  4 20  1  0  0  0
  5  6  1  0  0  0
  5 10  1  0  0  0
  6 18  1  0  0  0
  7 19  1  0  0  0
  8 15  1  0  0  0
  9 20  1  0  0  0
 10 16  1  0  0  0
 11 14  1  0  0  0
 12  8  1  0  0  0
 12 16  1  0  0  0
 13  9  1  0  0  0
 13 14  1  0  0  0
  1  3  2  0  0  0
  2  6  2  0  0  0
  4  8  2  0  0  0
  5  7  2  0  0  0
  9 15  2  0  0  0
 10 17  2  0  0  0
M  END
> <rmsd>
0.270065188

$$$$
ZINC67714724


 20 21  0  0  0  0  0  0  0  0999 V2000
    6.3388   -2.9460    2.4022 C   0  0  0  0  0
    5.1336   -3.6210    2.2088 C   0  0  0  0  0
    6.5237   -1.6772    1.8529 C   0  0  0  0  0
    4.2980   -1.7586    0.9164 C   0  0  0  0  0
    4.1132   -3.0273    1.4658 C   0  0  0  0  0
    5.5033   -1.0836    1.1099 C   0  0  0  0  0
    0.5793    1.9854    1.3077 C   0  0  0  0  0
    0.8622    1.1580    0.2412 C   0  0  0  0  0
    1.0281    3.5218   -0.1916 C   0  0  0  0  0
    3.2318   -1.1377    0.1385 C   0  0  0  0  0
    1.2301    4.8446   -0.8218 C   0  0  0  0  0
    1.3398    1.6548    3.6739 C   0  0  0  0  0
    0.1915    1.5507    2.6653 C   0  0  0  0  0
    0.8587   -0.3407    0.1520 C   0  0  0  0  0
    0.6743    3.3412    1.0616 N   0  0  0  0  0
    2.0155   -0.9234    0.7931 N   0  0  0  0  0
    3.4156   -0.8425   -1.0535 O   0  0  0  0  0
    2.9437   -3.7050    1.2887 O   0  0  0  0  0
    5.7052    0.1568    0.5823 O   0  0  0  0  0
    1.2627    2.1052   -1.1313 S   0  0  0  0  0
  1  2  1  0  0  0
  3  6  1  0  0  0
  4  5  1  0  0  0
  4 10  1  0  0  0
  5 18  1  0  0  0
  6 19  1  0  0  0
  7 15  1  0  0  0
  8 20  1  0  0  0
  9 20  1  0  0  0
 10 16  1  0  0  0
 11  9  1  0  0  0
 12 13  1  0  0  0
 13  7  1  0  0  0
 14  8  1  0  0  0
 14 16  1  0  0  0
  1  3  2  0  0  0
  2  5  2  0  0  0
  4  6  2  0  0  0
  7  8  2  0  0  0
  9 15  2  0  0  0
 10 17  2  0  0  0
M  END
> <rmsd>
0.27312395

$$$$
ZINC92106488


 20 21  0  0  0  0  0  0  0  0999 V2000
    6.3535   -2.9685    2.3837 C   0  0  0  0  0
   -0.0847    3.0987   -0.6921 C   0  0  0  0  0
    0.0362    1.7094   -0.7232 C   0  0  0  0  0
    5.1444   -3.6386    2.1975 C   0  0  0  0  0
    6.5389   -1.6990    1.8362 C   0  0  0  0  0
    1.6026    1.8048    1.1138 C   0  0  0  0  0
    4.3062   -1.7698    0.9160 C   0  0  0  0  0
    0.6380    3.8410    0.2418 C   0  0  0  0  0
    0.8798    1.0625    0.1798 C   0  0  0  0  0
    4.1207   -3.0393    1.4635 C   0  0  0  0  0
    5.5153   -1.0997    1.1023 C   0  0  0  0  0
    1.4817    3.1940    1.1447 C   0  0  0  0  0
    3.2361   -1.1432    0.1480 C   0  0  0  0  0
    0.4815    5.3274    0.2414 C   0  0  0  0  0
    1.0007   -0.3320    0.1489 N   0  0  0  0  0
    2.0324   -0.9297    0.8162 N   0  0  0  0  0
    3.4205   -0.8144   -1.0356 O   0  0  0  0  0
    2.9469   -3.7116    1.2947 O   0  0  0  0  0
    5.7174    0.1416    0.5769 O   0  0  0  0  0
    2.3923    4.0802    2.3130 Cl  0  0  0  0  0
  1  4  1  0  0  0
  2  8  1  0  0  0
  3  9  1  0  0  0
  5 11  1  0  0  0
  6 12  1  0  0  0
  7 10  1  0  0  0
  7 13  1  0  0  0
  9 15  1  0  0  0
 10 18  1  0  0  0
 11 19  1  0  0  0
 12 20  1  0  0  0
 13 16  1  0  0  0
 14  8  1  0  0  0
 15 16  1  0  0  0
  1  5  2  0  0  0
  2  3  2  0  0  0
  4 10  2  0  0  0
  6  9  2  0  0  0
  7 11  2  0  0  0
  8 12  2  0  0  0
 13 17  2  0  0  0
M  END
> <rmsd>
0.243691117

$$$$
ZINC92106488


 20 21  0  0  0  0  0  0  0  0999 V2000
    6.3538   -2.9684    2.3828 C   0  0  0  0  0
    1.4827    3.1940    1.1444 C   0  0  0  0  0
    1.6028    1.8047    1.1138 C   0  0  0  0  0
    5.1447   -3.6386    2.1965 C   0  0  0  0  0
    6.5391   -1.6988    1.8356 C   0  0  0  0  0
    0.0363    1.7098   -0.7231 C   0  0  0  0  0
    4.3063   -1.7696    0.9155 C   0  0  0  0  0
    0.6394    3.8413    0.2414 C   0  0  0  0  0
    0.8796    1.0626    0.1800 C   0  0  0  0  0
    4.1210   -3.0392    1.4627 C   0  0  0  0  0
    5.5154   -1.0994    1.1018 C   0  0  0  0  0
   -0.0839    3.0992   -0.6924 C   0  0  0  0  0
    3.2362   -1.1429    0.1476 C   0  0  0  0  0
    0.5377    5.3310    0.3081 C   0  0  0  0  0
    1.0006   -0.3319    0.1489 N   0  0  0  0  0
    2.0324   -0.9296    0.8159 N   0  0  0  0  0
    3.4204   -0.8139   -1.0359 O   0  0  0  0  0
    2.9472   -3.7116    1.2939 O   0  0  0  0  0
    5.7173    0.1420    0.5767 O   0  0  0  0  0
   -1.1379    3.8660   -1.8238 Cl  0  0  0  0  0
  1  4  1  0  0  0
  2  8  1  0  0  0
  3  9  1  0  0  0
  5 11  1  0  0  0
  6 12  1  0  0  0
  7 10  1  0  0  0
  7 13  1  0  0  0
  9 15  1  0  0  0
 10 18  1  0  0  0
 11 19  1  0  0  0
 12 20  1  0  0  0
 13 16  1  0  0  0
 14  8  1  0  0  0
 15 16  1  0  0  0
  1  5  2  0  0  0
  2  3  2  0  0  0
  4 10  2  0  0  0
  6  9  2  0  0  0
  7 11  2  0  0  0
  8 12  2  0  0  0
 13 17  2  0  0  0
M  END
> <rmsd>
0.243864059

$$$$
ZINC92122824


 20 21  0  0  0  0  0  0  0  0999 V2000
    6.3828   -3.1767    2.1833 C   0  0  0  0  0
    5.1171   -3.7466    2.0470 C   0  0  0  0  0
    6.6303   -1.8991    1.6809 C   0  0  0  0  0
    0.1774    1.5049    3.1060 C   0  0  0  0  0
    0.5437    1.8862    4.3781 C   0  0  0  0  0
    2.2940    2.3857    2.7238 C   0  0  0  0  0
    4.3461   -1.7615    0.9057 C   0  0  0  0  0
    1.1913    1.7941    2.1477 C   0  0  0  0  0
    4.0987   -3.0390    1.4082 C   0  0  0  0  0
    5.6120   -1.1916    1.0421 C   0  0  0  0  0
    3.2619   -1.0080    0.2246 C   0  0  0  0  0
   -0.1330    2.2203    0.0323 C   0  0  0  0  0
    0.9858   -0.0490    0.4600 C   0  0  0  0  0
    1.0671    1.4837    0.6523 C   0  0  0  0  0
    2.1477   -0.7575    0.9940 N   0  0  0  0  0
    3.4055   -0.6804   -0.9503 O   0  0  0  0  0
    2.8690   -3.6147    1.2867 O   0  0  0  0  0
    5.8753    0.0556    0.5593 O   0  0  0  0  0
    2.2373    1.9584   -0.0280 O   0  0  0  0  0
    2.1045    2.5898    4.4134 S   0  0  0  0  0
  1  2  1  0  0  0
  3 10  1  0  0  0
  4  8  1  0  0  0
  5 20  1  0  0  0
  6 20  1  0  0  0
  7  9  1  0  0  0
  7 11  1  0  0  0
  9 17  1  0  0  0
 10 18  1  0  0  0
 11 15  1  0  0  0
 12 14  1  0  0  0
 13 14  1  0  0  0
 13 15  1  0  0  0
 14  8  1  0  0  0
 14 19  1  0  0  0
  1  3  2  0  0  0
  2  9  2  0  0  0
  4  5  2  0  0  0
  6  8  2  0  0  0
  7 10  2  0  0  0
 11 16  2  0  0  0
M  END
> <rmsd>
0.384020656

$$$$
ZINC92122824


 20 21  0  0  0  0  0  0  0  0999 V2000
    6.3827   -3.1765    2.1840 C   0  0  0  0  0
    5.1170   -3.7464    2.0477 C   0  0  0  0  0
    6.6302   -1.8989    1.6817 C   0  0  0  0  0
    2.3338    2.4055    2.7410 C   0  0  0  0  0
    2.1859    2.5705    4.1005 C   0  0  0  0  0
    0.2134    1.5153    3.0780 C   0  0  0  0  0
    4.3461   -1.7613    0.9064 C   0  0  0  0  0
    1.1912    1.7943    2.1485 C   0  0  0  0  0
    4.0987   -3.0389    1.4089 C   0  0  0  0  0
    5.6119   -1.1914    1.0429 C   0  0  0  0  0
    3.2619   -1.0078    0.2254 C   0  0  0  0  0
   -0.1330    2.2205    0.0330 C   0  0  0  0  0
    0.9857   -0.0488    0.4607 C   0  0  0  0  0
    1.0671    1.4839    0.6531 C   0  0  0  0  0
    2.1477   -0.7573    0.9947 N   0  0  0  0  0
    3.4054   -0.6802   -0.9495 O   0  0  0  0  0
    2.8689   -3.6145    1.2875 O   0  0  0  0  0
    5.8753    0.0558    0.5601 O   0  0  0  0  0
    2.2373    1.9586   -0.0272 O   0  0  0  0  0
    0.6743    1.9897    4.6575 S   0  0  0  0  0
  1  2  1  0  0  0
  3 10  1  0  0  0
  4  8  1  0  0  0
  5 20  1  0  0  0
  6 20  1  0  0  0
  7  9  1  0  0  0
  7 11  1  0  0  0
  9 17  1  0  0  0
 10 18  1  0  0  0
 11 15  1  0  0  0
 12 14  1  0  0  0
 13 14  1  0  0  0
 13 15  1  0  0  0
 14  8  1  0  0  0
 14 19  1  0  0  0
  1  3  2  0  0  0
  2  9  2  0  0  0
  4  5  2  0  0  0
  6  8  2  0  0  0
  7 10  2  0  0  0
 11 16  2  0  0  0
M  END
> <rmsd>
0.384020656

$$$$
ZINC92122768


 20 21  0  0  0  0  0  0  0  0999 V2000
    6.3827   -3.1768    2.1836 C   0  0  0  0  0
    0.7545    1.9890    4.4226 C   0  0  0  0  0
    5.1170   -3.7467    2.0473 C   0  0  0  0  0
    6.6302   -1.8993    1.6812 C   0  0  0  0  0
    0.2774    1.5571    3.1514 C   0  0  0  0  0
    2.0149    2.5393    4.3425 C   0  0  0  0  0
    4.3461   -1.7617    0.9060 C   0  0  0  0  0
    4.0986   -3.0392    1.4085 C   0  0  0  0  0
    5.6119   -1.1918    1.0424 C   0  0  0  0  0
    1.1912    1.7940    2.1480 C   0  0  0  0  0
    3.2618   -1.0082    0.2249 C   0  0  0  0  0
   -0.1331    2.2201    0.0326 C   0  0  0  0  0
    0.9857   -0.0492    0.4603 C   0  0  0  0  0
    1.0670    1.4835    0.6526 C   0  0  0  0  0
    2.1476   -0.7577    0.9943 N   0  0  0  0  0
    3.4054   -0.6805   -0.9499 O   0  0  0  0  0
    2.8689   -3.6148    1.2870 O   0  0  0  0  0
    5.8752    0.0554    0.5596 O   0  0  0  0  0
    2.2372    1.9583   -0.0277 O   0  0  0  0  0
    2.6176    2.5339    2.7397 S   0  0  0  0  0
  1  3  1  0  0  0
  2  5  1  0  0  0
  4  9  1  0  0  0
  6 20  1  0  0  0
  7  8  1  0  0  0
  7 11  1  0  0  0
  8 17  1  0  0  0
  9 18  1  0  0  0
 10 20  1  0  0  0
 11 15  1  0  0  0
 12 14  1  0  0  0
 13 14  1  0  0  0
 13 15  1  0  0  0
 14 10  1  0  0  0
 14 19  1  0  0  0
  1  4  2  0  0  0
  2  6  2  0  0  0
  3  8  2  0  0  0
  5 10  2  0  0  0
  7  9  2  0  0  0
 11 16  2  0  0  0
M  END
> <rmsd>
0.384020656

$$$$
ZINC92122768


 20 21  0  0  0  0  0  0  0  0999 V2000
    6.1960   -2.8026    2.5826 C   0  0  0  0  0
   -2.2256    2.4872   -1.9418 C   0  0  0  0  0
    5.0118   -3.5010    2.3474 C   0  0  0  0  0
    6.4018   -1.5580    1.9871 C   0  0  0  0  0
   -0.9102    2.2994   -1.4276 C   0  0  0  0  0
   -3.1613    1.7481   -1.2520 C   0  0  0  0  0
    4.2392   -1.7105    0.9210 C   0  0  0  0  0
    4.0333   -2.9550    1.5166 C   0  0  0  0  0
    5.4234   -1.0121    1.1563 C   0  0  0  0  0
   -0.8907    1.4240   -0.3640 C   0  0  0  0  0
    3.1975   -1.1291    0.0356 C   0  0  0  0  0
    1.3967    2.0459    0.5257 C   0  0  0  0  0
    0.8386   -0.3749   -0.1165 C   0  0  0  0  0
    0.3107    0.9577    0.4651 C   0  0  0  0  0
    1.9731   -0.9176    0.6290 N   0  0  0  0  0
    3.4699   -0.8971   -1.1394 O   0  0  0  0  0
    2.8831   -3.6542    1.3012 O   0  0  0  0  0
    5.6448    0.2057    0.5853 O   0  0  0  0  0
   -0.1101    0.7209    1.8158 O   0  0  0  0  0
   -2.4535    0.8326    0.0102 S   0  0  0  0  0
  1  3  1  0  0  0
  2  5  1  0  0  0
  4  9  1  0  0  0
  6 20  1  0  0  0
  7  8  1  0  0  0
  7 11  1  0  0  0
  8 17  1  0  0  0
  9 18  1  0  0  0
 10 20  1  0  0  0
 11 15  1  0  0  0
 12 14  1  0  0  0
 13 14  1  0  0  0
 13 15  1  0  0  0
 14 10  1  0  0  0
 14 19  1  0  0  0
  1  4  2  0  0  0
  2  6  2  0  0  0
  3  8  2  0  0  0
  5 10  2  0  0  0
  7  9  2  0  0  0
 11 16  2  0  0  0
M  END
> <rmsd>
0.485072166

$$$$
ZINC92123835


 20 21  0  0  0  0  0  0  0  0999 V2000
    6.3386   -2.9548    2.3898 C   0  0  0  0  0
    5.1301   -3.6246    2.1992 C   0  0  0  0  0
    6.5261   -1.6852    1.8432 C   0  0  0  0  0
    0.5759    1.9144    1.3893 C   0  0  0  0  0
    4.2967   -1.7556    0.9149 C   0  0  0  0  0
    4.1092   -3.0250    1.4617 C   0  0  0  0  0
    5.5052   -1.0857    1.1057 C   0  0  0  0  0
    0.8688    1.1754    0.2621 C   0  0  0  0  0
    1.1523    3.1822   -0.5761 C   0  0  0  0  0
    3.2295   -1.1287    0.1432 C   0  0  0  0  0
    1.8006    3.9024   -2.8611 C   0  0  0  0  0
    1.3412    5.6035   -1.0881 C   0  0  0  0  0
    0.8594   -0.3230    0.1690 C   0  0  0  0  0
    1.1991    1.9008   -0.8660 N   0  0  0  0  0
    2.0168   -0.9116    0.8036 N   0  0  0  0  0
    1.4220    4.1780   -1.4618 N   0  0  0  0  0
    3.4093   -0.8310   -1.0487 O   0  0  0  0  0
    2.9359   -3.6972    1.2886 O   0  0  0  0  0
    5.7094    0.1558    0.5811 O   0  0  0  0  0
    0.7185    3.5862    1.0343 S   0  0  0  0  0
  1  2  1  0  0  0
  3  7  1  0  0  0
  4 20  1  0  0  0
  5  6  1  0  0  0
  5 10  1  0  0  0
  6 18  1  0  0  0
  7 19  1  0  0  0
  8 14  1  0  0  0
  9 16  1  0  0  0
  9 20  1  0  0  0
 10 15  1  0  0  0
 11 16  1  0  0  0
 12 16  1  0  0  0
 13  8  1  0  0  0
 13 15  1  0  0  0
  1  3  2  0  0  0
  2  6  2  0  0  0
  4  8  2  0  0  0
  5  7  2  0  0  0
  9 14  2  0  0  0
 10 17  2  0  0  0
M  END
> <rmsd>
0.270586878

$$$$
ZINC92124068


 21 22  0  0  0  0  0  0  0  0999 V2000
    6.4438   -2.9908    2.2535 C   0  0  0  0  0
    5.2422   -3.6799    2.0899 C   0  0  0  0  0
    6.5821   -1.6995    1.7446 C   0  0  0  0  0
    4.3172   -1.7866    0.9081 C   0  0  0  0  0
    4.1790   -3.0780    1.4171 C   0  0  0  0  0
    5.5188   -1.0974    1.0718 C   0  0  0  0  0
    3.1851   -1.1454    0.1910 C   0  0  0  0  0
    1.6802    2.5576   -0.2560 C   0  0  0  0  0
    1.5791    1.8796    1.1087 C   0  0  0  0  0
    0.3216    3.0716   -0.7144 C   0  0  0  0  0
    0.4381    0.8491    1.1534 C   0  0  0  0  0
   -0.8537    1.5194    0.6411 C   0  0  0  0  0
   -2.3185    0.0637    2.0363 C   0  0  0  0  0
   -3.2741    1.3184    0.0828 C   0  0  0  0  0
    0.8228   -0.4051    0.3567 C   0  0  0  0  0
   -2.0421    0.6014    0.6329 C   0  0  0  0  0
    1.9988   -0.9796    0.9125 N   0  0  0  0  0
    3.3287   -0.8149   -0.9832 O   0  0  0  0  0
   -0.6588    2.0342   -0.6816 O   0  0  0  0  0
    3.0133   -3.7692    1.2694 O   0  0  0  0  0
    5.6753    0.1654    0.5832 O   0  0  0  0  0
  1  2  1  0  0  0
  3  6  1  0  0  0
  4  5  1  0  0  0
  4  7  1  0  0  0
  5 20  1  0  0  0
  6 21  1  0  0  0
  7 17  1  0  0  0
  8  9  1  0  0  0
  8 10  1  0  0  0
  9 11  1  0  0  0
 10 19  1  0  0  0
 11 12  1  0  0  0
 11 15  1  0  0  0
 12 16  1  0  0  0
 12 19  1  0  0  0
 13 16  1  0  0  0
 14 16  1  0  0  0
 15 17  1  0  0  0
  1  3  2  0  0  0
  2  5  2  0  0  0
  4  6  2  0  0  0
  7 18  2  0  0  0
M  END
> <rmsd>
0.391098738

$$$$
ZINC92126008


 21 22  0  0  0  0  0  0  0  0999 V2000
    6.5229   -3.0790    2.1213 C   0  0  0  0  0
    5.3088   -3.7524    1.9874 C   0  0  0  0  0
    6.6531   -1.7744    1.6452 C   0  0  0  0  0
    4.3549   -1.8165    0.9012 C   0  0  0  0  0
    4.2248   -3.1212    1.3772 C   0  0  0  0  0
    5.5691   -1.1432    1.0352 C   0  0  0  0  0
    3.2007   -1.1443    0.2507 C   0  0  0  0  0
    1.1402    3.2817   -0.1142 C   0  0  0  0  0
    1.7164    1.8841   -0.2142 C   0  0  0  0  0
   -0.3570    3.0455   -0.0594 C   0  0  0  0  0
    0.8802    1.1071    0.7923 C   0  0  0  0  0
   -3.5160    1.3182    0.7200 C   0  0  0  0  0
   -3.5089    2.4258    2.9743 C   0  0  0  0  0
    0.8547   -0.3886    0.5360 C   0  0  0  0  0
   -1.3011    1.7570    1.8970 C   0  0  0  0  0
   -2.7392    2.2350    1.6664 C   0  0  0  0  0
    2.0513   -0.9920    1.0274 N   0  0  0  0  0
   -0.5141    1.6966    0.6234 N   0  0  0  0  0
    3.2991   -0.7802   -0.9181 O   0  0  0  0  0
    3.0471   -3.7975    1.2578 O   0  0  0  0  0
    5.7179    0.1322    0.5778 O   0  0  0  0  0
  1  2  1  0  0  0
  3  6  1  0  0  0
  4  5  1  0  0  0
  4  7  1  0  0  0
  5 20  1  0  0  0
  6 21  1  0  0  0
  7 17  1  0  0  0
  8  9  1  0  0  0
  8 10  1  0  0  0
  9 11  1  0  0  0
 10 18  1  0  0  0
 11 14  1  0  0  0
 11 18  1  0  0  0
 12 16  1  0  0  0
 13 16  1  0  0  0
 14 17  1  0  0  0
 15 16  1  0  0  0
 15 18  1  0  0  0
  1  3  2  0  0  0
  2  5  2  0  0  0
  4  6  2  0  0  0
  7 19  2  0  0  0
M  CHG  1  18   1
M  END
> <rmsd>
0.371493906

$$$$
ZINC92106265


 22 24  0  0  0  0  0  0  0  0999 V2000
   -0.0928    3.2160    3.7586 C   0  0  0  0  0
   -0.1131    1.8232    3.7665 C   0  0  0  0  0
    6.3478   -2.9462    2.3989 C   0  0  0  0  0
    0.2391    3.9054    2.5911 C   0  0  0  0  0
    0.1985    1.1136    2.6071 C   0  0  0  0  0
    5.1445   -3.6247    2.2056 C   0  0  0  0  0
    6.5283   -1.6763    1.8508 C   0  0  0  0  0
    0.8925    3.8692    0.2282 C   0  0  0  0  0
    1.1925    3.1082   -0.8914 C   0  0  0  0  0
    0.5557    3.2070    1.4145 C   0  0  0  0  0
    0.5341    1.7970    1.4266 C   0  0  0  0  0
    4.3023   -1.7634    0.9159 C   0  0  0  0  0
    4.1217   -3.0333    1.4640 C   0  0  0  0  0
    5.5056   -1.0849    1.1093 C   0  0  0  0  0
    0.8543    1.1374    0.2383 C   0  0  0  0  0
    3.2133   -1.1336    0.1255 C   0  0  0  0  0
    0.8573   -0.3565    0.1569 C   0  0  0  0  0
    1.1820    1.7585   -0.9172 N   0  0  0  0  0
    2.0120   -0.9327    0.7935 N   0  0  0  0  0
    3.4145   -0.8481   -1.0520 O   0  0  0  0  0
    2.9536   -3.7138    1.2883 O   0  0  0  0  0
    5.7028    0.1571    0.5833 O   0  0  0  0  0
  1  2  1  0  0  0
  3  6  1  0  0  0
  4 10  1  0  0  0
  5 11  1  0  0  0
  7 14  1  0  0  0
  8  9  1  0  0  0
 10 11  1  0  0  0
 12 13  1  0  0  0
 12 16  1  0  0  0
 13 21  1  0  0  0
 14 22  1  0  0  0
 15 18  1  0  0  0
 16 19  1  0  0  0
 17 15  1  0  0  0
 17 19  1  0  0  0
  1  4  2  0  0  0
  2  5  2  0  0  0
  3  7  2  0  0  0
  6 13  2  0  0  0
  8 10  2  0  0  0
  9 18  2  0  0  0
 11 15  2  0  0  0
 12 14  2  0  0  0
 16 20  2  0  0  0
M  END
> <rmsd>
0.278270304

$$$$
ZINC92123977


 22 24  0  0  0  0  0  0  0  0999 V2000
   -0.1251    1.8290    3.7442 C   0  0  0  0  0
   -0.1064    3.2181    3.7292 C   0  0  0  0  0
    6.3476   -2.9412    2.4062 C   0  0  0  0  0
    0.1912    1.1251    2.5859 C   0  0  0  0  0
    0.2285    3.8998    2.5566 C   0  0  0  0  0
    5.1463   -3.6227    2.2110 C   0  0  0  0  0
    6.5267   -1.6719    1.8565 C   0  0  0  0  0
    1.1790    1.8337   -0.9216 C   0  0  0  0  0
    1.1727    3.2119   -0.8467 C   0  0  0  0  0
    0.5280    1.8110    1.4066 C   0  0  0  0  0
    4.3031   -1.7653    0.9164 C   0  0  0  0  0
    0.8505    1.1274    0.2264 C   0  0  0  0  0
    0.5492    3.2213    1.3841 C   0  0  0  0  0
    4.1240   -3.0347    1.4661 C   0  0  0  0  0
    5.5044   -1.0839    1.1115 C   0  0  0  0  0
    3.2147   -1.1392    0.1223 C   0  0  0  0  0
    0.8569   -0.3670    0.1467 C   0  0  0  0  0
    0.8675    3.9094    0.2714 N   0  0  0  0  0
    2.0113   -0.9397    0.7870 N   0  0  0  0  0
    3.4182   -0.8550   -1.0551 O   0  0  0  0  0
    2.9578   -3.7180    1.2887 O   0  0  0  0  0
    5.7003    0.1576    0.5839 O   0  0  0  0  0
  1  2  1  0  0  0
  3  6  1  0  0  0
  4 10  1  0  0  0
  5 13  1  0  0  0
  7 15  1  0  0  0
  8 12  1  0  0  0
  9 18  1  0  0  0
 10 13  1  0  0  0
 11 14  1  0  0  0
 11 16  1  0  0  0
 14 21  1  0  0  0
 15 22  1  0  0  0
 16 19  1  0  0  0
 17 12  1  0  0  0
 17 19  1  0  0  0
  1  4  2  0  0  0
  2  5  2  0  0  0
  3  7  2  0  0  0
  6 14  2  0  0  0
  8  9  2  0  0  0
 10 12  2  0  0  0
 11 15  2  0  0  0
 13 18  2  0  0  0
 16 20  2  0  0  0
M  END
> <rmsd>
0.283960581

$$$$
ZINC92120309


 22 24  0  0  0  0  0  0  0  0999 V2000
    1.1897    3.2397   -0.8969 C   0  0  0  0  0
    6.3456   -2.9410    2.4071 C   0  0  0  0  0
   -0.1197    3.0793    3.7647 C   0  0  0  0  0
    0.8663    3.9047    0.2824 C   0  0  0  0  0
    0.2041    3.8236    2.6396 C   0  0  0  0  0
    1.1821    1.8507   -0.9251 C   0  0  0  0  0
    5.1441   -3.6220    2.2115 C   0  0  0  0  0
    6.5255   -1.6718    1.8571 C   0  0  0  0  0
   -0.1018    1.7042    3.6471 C   0  0  0  0  0
    0.5337    3.1797    1.4392 C   0  0  0  0  0
    4.3023   -1.7646    0.9160 C   0  0  0  0  0
    0.8515    1.1301    0.2253 C   0  0  0  0  0
    0.5242    1.7692    1.4180 C   0  0  0  0  0
    4.1225   -3.0338    1.4660 C   0  0  0  0  0
    5.5038   -1.0836    1.1115 C   0  0  0  0  0
    3.2146   -1.1382    0.1212 C   0  0  0  0  0
    0.8571   -0.3652    0.1443 C   0  0  0  0  0
    0.2103    1.0443    2.5083 N   0  0  0  0  0
    2.0107   -0.9381    0.7852 N   0  0  0  0  0
    3.4187   -0.8545   -1.0562 O   0  0  0  0  0
    2.9562   -3.7166    1.2881 O   0  0  0  0  0
    5.7005    0.1578    0.5839 O   0  0  0  0  0
  1  4  1  0  0  0
  2  7  1  0  0  0
  3  9  1  0  0  0
  5 10  1  0  0  0
  6 12  1  0  0  0
  8 15  1  0  0  0
 10 13  1  0  0  0
 11 14  1  0  0  0
 11 16  1  0  0  0
 13 18  1  0  0  0
 14 21  1  0  0  0
 15 22  1  0  0  0
 16 19  1  0  0  0
 17 12  1  0  0  0
 17 19  1  0  0  0
  1  6  2  0  0  0
  2  8  2  0  0  0
  3  5  2  0  0  0
  4 10  2  0  0  0
  7 14  2  0  0  0
  9 18  2  0  0  0
 11 15  2  0  0  0
 12 13  2  0  0  0
 16 20  2  0  0  0
M  END
> <rmsd>
0.282589167

$$$$
ZINC92120309


 22 24  0  0  0  0  0  0  0  0999 V2000
    0.4917    3.1133    1.5094 C   0  0  0  0  0
    6.3301   -2.9285    2.4310 C   0  0  0  0  0
    1.8367    3.4371   -3.1336 C   0  0  0  0  0
    0.8186    3.8970    0.4065 C   0  0  0  0  0
    1.4988    4.0608   -1.9413 C   0  0  0  0  0
    0.5100    1.7287    1.3963 C   0  0  0  0  0
    5.1299   -3.6102    2.2303 C   0  0  0  0  0
    6.5149   -1.6627    1.8746 C   0  0  0  0  0
    1.8288    2.0571   -3.1566 C   0  0  0  0  0
    1.1655    3.2959   -0.8154 C   0  0  0  0  0
    4.2990   -1.7605    0.9168 C   0  0  0  0  0
    0.8549    1.1312    0.1814 C   0  0  0  0  0
    1.1859    1.8907   -0.9375 C   0  0  0  0  0
    4.1144   -3.0262    1.4732 C   0  0  0  0  0
    5.4993   -1.0788    1.1175 C   0  0  0  0  0
    3.2178   -1.1386    0.1097 C   0  0  0  0  0
    0.8605   -0.3646    0.1097 C   0  0  0  0  0
    1.5135    1.2826   -2.0933 N   0  0  0  0  0
    2.0088   -0.9339    0.7631 N   0  0  0  0  0
    3.4312   -0.8622   -1.0678 O   0  0  0  0  0
    2.9492   -3.7097    1.2904 O   0  0  0  0  0
    5.7006    0.1592    0.5837 O   0  0  0  0  0
  1  4  1  0  0  0
  2  7  1  0  0  0
  3  9  1  0  0  0
  5 10  1  0  0  0
  6 12  1  0  0  0
  8 15  1  0  0  0
 10 13  1  0  0  0
 11 14  1  0  0  0
 11 16  1  0  0  0
 13 18  1  0  0  0
 14 21  1  0  0  0
 15 22  1  0  0  0
 16 19  1  0  0  0
 17 12  1  0  0  0
 17 19  1  0  0  0
  1  6  2  0  0  0
  2  8  2  0  0  0
  3  5  2  0  0  0
  4 10  2  0  0  0
  7 14  2  0  0  0
  9 18  2  0  0  0
 11 15  2  0  0  0
 12 13  2  0  0  0
 16 20  2  0  0  0
M  END
> <rmsd>
0.280202061

$$$$
ZINC92121213


 21 22  0  0  0  0  0  0  0  0999 V2000
    6.4466   -3.2127    2.0628 C   0  0  0  0  0
    5.1821   -3.7906    1.9516 C   0  0  0  0  0
    6.6658   -1.9181    1.5918 C   0  0  0  0  0
    4.3556   -1.7794    0.8985 C   0  0  0  0  0
    4.1365   -3.0740    1.3695 C   0  0  0  0  0
    5.6202   -1.2015    1.0097 C   0  0  0  0  0
    3.2423   -1.0161    0.2779 C   0  0  0  0  0
    1.0656    2.5046    2.3675 C   0  0  0  0  0
    2.8464    3.1335    0.8736 C   0  0  0  0  0
    1.8174    3.1882    3.5059 C   0  0  0  0  0
    3.5568    3.8014    2.0475 C   0  0  0  0  0
    0.1070    2.2240   -0.1268 C   0  0  0  0  0
    0.2931   -0.8795   -0.4998 C   0  0  0  0  0
    1.3196    1.3720    0.2524 C   0  0  0  0  0
    0.9673   -0.0866    0.6192 C   0  0  0  0  0
    2.0193    2.0204    1.3596 N   0  0  0  0  0
    2.1405   -0.7924    1.0868 N   0  0  0  0  0
    3.3430   -0.6515   -0.8906 O   0  0  0  0  0
    2.6049    4.2687    3.0039 O   0  0  0  0  0
    2.9085   -3.6576    1.2718 O   0  0  0  0  0
    5.8560    0.0624    0.5570 O   0  0  0  0  0
  1  2  1  0  0  0
  3  6  1  0  0  0
  4  5  1  0  0  0
  4  7  1  0  0  0
  5 20  1  0  0  0
  6 21  1  0  0  0
  7 17  1  0  0  0
  8 10  1  0  0  0
  8 16  1  0  0  0
  9 11  1  0  0  0
  9 16  1  0  0  0
 10 19  1  0  0  0
 11 19  1  0  0  0
 12 14  1  0  0  0
 13 15  1  0  0  0
 14 15  1  0  0  0
 14 16  1  0  0  0
 15 17  1  0  0  0
  1  3  2  0  0  0
  2  5  2  0  0  0
  4  6  2  0  0  0
  7 18  2  0  0  0
M  END
> <rmsd>
0.334466547

$$$$
ZINC92125416


 22 25  0  0  0  0  0  0  0  0999 V2000
    2.5016    6.1883    0.9292 C   0  0  0  0  0
    3.6236    5.3705    0.7294 C   0  0  0  0  0
    6.3907   -3.0806    2.1887 C   0  0  0  0  0
    1.2140    5.6855    0.7411 C   0  0  0  0  0
    3.4746    4.0373    0.3379 C   0  0  0  0  0
    5.1502   -3.7020    2.0456 C   0  0  0  0  0
    6.5876   -1.7929    1.6897 C   0  0  0  0  0
    4.3032   -1.7481    0.9044 C   0  0  0  0  0
    1.0767    4.3625    0.3521 C   0  0  0  0  0
    2.1963    3.5311    0.1478 C   0  0  0  0  0
    4.1064   -3.0357    1.4034 C   0  0  0  0  0
    5.5438   -1.1267    1.0475 C   0  0  0  0  0
    3.1918   -1.0386    0.2199 C   0  0  0  0  0
   -0.2131    3.6166    0.1027 C   0  0  0  0  0
    1.7714    2.1569   -0.2650 C   0  0  0  0  0
    0.2481    2.2268   -0.3097 C   0  0  0  0  0
    0.9394    1.2995    0.6580 C   0  0  0  0  0
    0.8773   -0.1740    0.4469 C   0  0  0  0  0
    2.0450   -0.8242    0.9756 N   0  0  0  0  0
    3.3269   -0.7030   -0.9539 O   0  0  0  0  0
    2.9021   -3.6613    1.2754 O   0  0  0  0  0
    5.7576    0.1313    0.5682 O   0  0  0  0  0
  1  2  1  0  0  0
  3  6  1  0  0  0
  4  9  1  0  0  0
  5 10  1  0  0  0
  7 12  1  0  0  0
  8 11  1  0  0  0
  8 13  1  0  0  0
 11 21  1  0  0  0
 12 22  1  0  0  0
 13 19  1  0  0  0
 14  9  1  0  0  0
 14 16  1  0  0  0
 15 10  1  0  0  0
 15 16  1  0  0  0
 15 17  1  0  0  0
 16 17  1  0  0  0
 17 18  1  0  0  0
 18 19  1  0  0  0
  1  4  2  0  0  0
  2  5  2  0  0  0
  3  7  2  0  0  0
  6 11  2  0  0  0
  8 12  2  0  0  0
  9 10  2  0  0  0
 13 20  2  0  0  0
M  END
> <rmsd>
0.34293139

$$$$
ZINC92121283


 21 22  0  0  0  0  0  0  0  0999 V2000
    6.2769   -3.1128    2.3163 C   0  0  0  0  0
    5.0090   -3.6704    2.1518 C   0  0  0  0  0
    6.5619   -1.8575    1.7790 C   0  0  0  0  0
    4.3110   -1.7176    0.9124 C   0  0  0  0  0
    4.0260   -2.9728    1.4498 C   0  0  0  0  0
    5.5789   -1.1599    1.0769 C   0  0  0  0  0
    3.2644   -0.9747    0.1640 C   0  0  0  0  0
   -0.0268    2.2817   -0.1664 C   0  0  0  0  0
    1.1740    1.5377    0.4111 C   0  0  0  0  0
   -1.3328    1.8118    0.4572 C   0  0  0  0  0
   -0.3165   -0.4382    0.9100 C   0  0  0  0  0
    0.9955    0.0228    0.2781 C   0  0  0  0  0
   -3.3779   -2.6027   -1.9436 C   0  0  0  0  0
   -2.7954   -0.1829    0.7721 C   0  0  0  0  0
   -3.0982   -1.5189    0.1228 C   0  0  0  0  0
    2.1120   -0.6730    0.8734 N   0  0  0  0  0
   -1.4654    0.3180    0.2803 N   0  0  0  0  0
    3.4571   -0.6914   -1.0155 O   0  0  0  0  0
    2.7935   -3.5360    1.3017 O   0  0  0  0  0
    5.8786    0.0656    0.5608 O   0  0  0  0  0
   -3.1064   -1.3700   -1.2909 O   0  0  0  0  0
  1  2  1  0  0  0
  3  6  1  0  0  0
  4  5  1  0  0  0
  4  7  1  0  0  0
  5 19  1  0  0  0
  6 20  1  0  0  0
  7 16  1  0  0  0
  8  9  1  0  0  0
  8 10  1  0  0  0
  9 12  1  0  0  0
 10 17  1  0  0  0
 11 12  1  0  0  0
 11 17  1  0  0  0
 12 16  1  0  0  0
 13 21  1  0  0  0
 14 15  1  0  0  0
 14 17  1  0  0  0
 15 21  1  0  0  0
  1  3  2  0  0  0
  2  5  2  0  0  0
  4  6  2  0  0  0
  7 18  2  0  0  0
M  CHG  1  17   1
M  END
> <rmsd>
0.39631024

$$$$
ZINC92121283


 21 22  0  0  0  0  0  0  0  0999 V2000
    6.2769   -3.1129    2.3161 C   0  0  0  0  0
    5.0090   -3.6705    2.1515 C   0  0  0  0  0
    6.5619   -1.8575    1.7787 C   0  0  0  0  0
    4.3110   -1.7176    0.9121 C   0  0  0  0  0
    4.0260   -2.9729    1.4496 C   0  0  0  0  0
    5.5789   -1.1600    1.0767 C   0  0  0  0  0
    3.2644   -0.9747    0.1638 C   0  0  0  0  0
   -0.0268    2.2816   -0.1667 C   0  0  0  0  0
    1.1741    1.5376    0.4108 C   0  0  0  0  0
   -1.3328    1.8118    0.4569 C   0  0  0  0  0
   -0.3165   -0.4382    0.9098 C   0  0  0  0  0
    0.9955    0.0227    0.2778 C   0  0  0  0  0
   -6.1531   -0.0646   -0.7387 C   0  0  0  0  0
   -2.7954   -0.1830    0.7718 C   0  0  0  0  0
   -3.8570    0.1104   -0.2698 C   0  0  0  0  0
    2.1120   -0.6731    0.8732 N   0  0  0  0  0
   -1.4654    0.3180    0.2800 N   0  0  0  0  0
    3.4571   -0.6914   -1.0157 O   0  0  0  0  0
    2.7936   -3.5361    1.3015 O   0  0  0  0  0
    5.8786    0.0656    0.5605 O   0  0  0  0  0
   -5.1232   -0.3283    0.2042 O   0  0  0  0  0
  1  2  1  0  0  0
  3  6  1  0  0  0
  4  5  1  0  0  0
  4  7  1  0  0  0
  5 19  1  0  0  0
  6 20  1  0  0  0
  7 16  1  0  0  0
  8  9  1  0  0  0
  8 10  1  0  0  0
  9 12  1  0  0  0
 10 17  1  0  0  0
 11 12  1  0  0  0
 11 17  1  0  0  0
 12 16  1  0  0  0
 13 21  1  0  0  0
 14 15  1  0  0  0
 14 17  1  0  0  0
 15 21  1  0  0  0
  1  3  2  0  0  0
  2  5  2  0  0  0
  4  6  2  0  0  0
  7 18  2  0  0  0
M  CHG  1  17   1
M  END
> <rmsd>
0.396310091

$$$$
ZINC63428698


 22 24  0  0  0  0  0  0  0  0999 V2000
    3.9259   -0.6575    2.8713 C   0  0  0  0  0
   -0.3639   -3.4064    3.0351 C   0  0  0  0  0
    0.4346   -4.5444    2.9223 C   0  0  0  0  0
    0.0966   -2.1806    2.5543 C   0  0  0  0  0
    1.6939   -4.4567    2.3290 C   0  0  0  0  0
    1.3560   -2.0929    1.9610 C   0  0  0  0  0
    2.1546   -3.2310    1.8484 C   0  0  0  0  0
    3.3542   -0.6528    1.5572 C   0  0  0  0  0
    1.4194   -0.5855    0.0337 C   0  0  0  0  0
    0.3825   -0.0024   -0.5668 C   0  0  0  0  0
    4.1525   -0.4877    0.4696 C   0  0  0  0  0
    1.8346   -0.7680    1.4502 C   0  0  0  0  0
    2.3492   -0.9873   -1.0491 C   0  0  0  0  0
    0.3165    2.8996    0.0848 C   0  0  0  0  0
   -0.8105    0.6267    0.0556 C   0  0  0  0  0
   -0.9164    2.1032   -0.3197 C   0  0  0  0  0
    4.3885   -0.6613    3.9352 N   0  0  0  0  0
    0.5221    0.0066   -1.9332 N   0  0  0  0  0
    1.6239   -0.5183   -2.2652 N   0  0  0  0  0
    5.5113   -0.3256    0.5269 N   0  0  0  0  0
    3.6544   -0.4399   -0.8297 O   0  0  0  0  0
    3.3872   -3.1629    1.2716 O   0  0  0  0  0
  2  3  1  0  0  0
  4  6  1  0  0  0
  5  7  1  0  0  0
  7 22  1  0  0  0
  8  1  1  0  0  0
 10 18  1  0  0  0
 11 20  1  0  0  0
 11 21  1  0  0  0
 12  6  1  0  0  0
 12  8  1  0  0  0
 12  9  1  0  0  0
 13  9  1  0  0  0
 13 19  1  0  0  0
 13 21  1  0  0  0
 14 16  1  0  0  0
 15 10  1  0  0  0
 15 16  1  0  0  0
  2  4  2  0  0  0
  3  5  2  0  0  0
  6  7  2  0  0  0
  8 11  2  0  0  0
  9 10  2  0  0  0
 18 19  2  0  0  0
  1 17  3  0  0  0
M  END
> <rmsd>
0.520968258

$$$$
ZINC92122084


 22 24  0  0  0  0  0  0  0  0999 V2000
    0.9430    5.7283    0.3082 C   0  0  0  0  0
    1.2678    5.4708   -1.0262 C   0  0  0  0  0
    6.3634   -2.9856    2.3384 C   0  0  0  0  0
    0.7032    4.6815    1.2090 C   0  0  0  0  0
    1.3650    4.1625   -1.5094 C   0  0  0  0  0
    5.1490   -3.6480    2.1595 C   0  0  0  0  0
    6.5474   -1.7100    1.8047 C   0  0  0  0  0
    0.7957    3.3578    0.7446 C   0  0  0  0  0
    4.3026   -1.7595    0.9128 C   0  0  0  0  0
    0.6337    2.0675    1.3144 C   0  0  0  0  0
    1.1213    3.1431   -0.5907 C   0  0  0  0  0
    4.1186   -3.0349    1.4466 C   0  0  0  0  0
    5.5170   -1.0970    1.0918 C   0  0  0  0  0
    0.8682    1.1647    0.3032 C   0  0  0  0  0
    3.2055   -1.1067    0.1530 C   0  0  0  0  0
    0.2836    1.7536    2.7130 C   0  0  0  0  0
    0.8593   -0.3045    0.2416 C   0  0  0  0  0
    2.0278   -0.9063    0.8514 N   0  0  0  0  0
    3.3868   -0.8065   -1.0242 O   0  0  0  0  0
    1.1647    1.8072   -0.8565 O   0  0  0  0  0
    2.9397   -3.7000    1.2846 O   0  0  0  0  0
    5.7179    0.1500    0.5794 O   0  0  0  0  0
  1  2  1  0  0  0
  3  6  1  0  0  0
  4  8  1  0  0  0
  5 11  1  0  0  0
  7 13  1  0  0  0
  8 10  1  0  0  0
  9 12  1  0  0  0
  9 15  1  0  0  0
 11 20  1  0  0  0
 12 21  1  0  0  0
 13 22  1  0  0  0
 14 20  1  0  0  0
 15 18  1  0  0  0
 16 10  1  0  0  0
 17 14  1  0  0  0
 17 18  1  0  0  0
  1  4  2  0  0  0
  2  5  2  0  0  0
  3  7  2  0  0  0
  6 12  2  0  0  0
  8 11  2  0  0  0
  9 13  2  0  0  0
 10 14  2  0  0  0
 15 19  2  0  0  0
M  END
> <rmsd>
0.269541293

$$$$
ZINC92126954


 22 24  0  0  0  0  0  0  0  0999 V2000
    0.6582    5.5676    1.2127 C   0  0  0  0  0
    6.3159   -2.9477    2.4134 C   0  0  0  0  0
    1.0275    5.6550   -0.1315 C   0  0  0  0  0
    0.4696    4.3289    1.8346 C   0  0  0  0  0
    5.1052   -3.6123    2.2181 C   0  0  0  0  0
    6.5144   -1.6829    1.8600 C   0  0  0  0  0
    4.2915   -1.7471    0.9157 C   0  0  0  0  0
    1.2218    4.5022   -0.9027 C   0  0  0  0  0
    1.0369    3.2493   -0.2941 C   0  0  0  0  0
    0.6687    3.1943    1.0472 C   0  0  0  0  0
    4.0931   -3.0120    1.4692 C   0  0  0  0  0
    5.5023   -1.0826    1.1111 C   0  0  0  0  0
    0.8778    1.1721    0.1746 C   0  0  0  0  0
    3.2139   -1.1079    0.1175 C   0  0  0  0  0
    1.6167    4.6479   -2.3360 C   0  0  0  0  0
    0.8674   -0.3019    0.1346 C   0  0  0  0  0
    1.1619    1.9836   -0.8193 N   0  0  0  0  0
    0.5741    1.8537    1.3201 N   0  0  0  0  0
    2.0189   -0.8925    0.7829 N   0  0  0  0  0
    3.4238   -0.8306   -1.0605 O   0  0  0  0  0
    2.9174   -3.6789    1.2917 O   0  0  0  0  0
    5.7172    0.1542    0.5800 O   0  0  0  0  0
  1  4  1  0  0  0
  2  5  1  0  0  0
  3  8  1  0  0  0
  6 12  1  0  0  0
  7 11  1  0  0  0
  7 14  1  0  0  0
  9 10  1  0  0  0
  9 17  1  0  0  0
 10 18  1  0  0  0
 11 21  1  0  0  0
 12 22  1  0  0  0
 13 18  1  0  0  0
 14 19  1  0  0  0
 15  8  1  0  0  0
 16 13  1  0  0  0
 16 19  1  0  0  0
  1  3  2  0  0  0
  2  6  2  0  0  0
  4 10  2  0  0  0
  5 11  2  0  0  0
  7 12  2  0  0  0
  8  9  2  0  0  0
 13 17  2  0  0  0
 14 20  2  0  0  0
M  END
> <rmsd>
0.258875966

$$$$
ZINC92126954


 22 24  0  0  0  0  0  0  0  0999 V2000
    1.1401    5.6227   -0.4897 C   0  0  0  0  0
    6.3455   -2.9711    2.3662 C   0  0  0  0  0
    0.7919    5.6259    0.8630 C   0  0  0  0  0
    1.3014    4.4254   -1.1949 C   0  0  0  0  0
    5.1323   -3.6341    2.1813 C   0  0  0  0  0
    6.5350   -1.6996    1.8250 C   0  0  0  0  0
    4.2981   -1.7540    0.9138 C   0  0  0  0  0
    0.5924    4.4273    1.5594 C   0  0  0  0  0
    0.7501    3.2151    0.8666 C   0  0  0  0  0
    1.0977    3.2440   -0.4810 C   0  0  0  0  0
    4.1087   -3.0256    1.4551 C   0  0  0  0  0
    5.5113   -1.0910    1.0988 C   0  0  0  0  0
    0.8720    1.1715    0.2595 C   0  0  0  0  0
    3.2082   -1.1061    0.1397 C   0  0  0  0  0
    0.2208    4.4833    3.0052 C   0  0  0  0  0
    0.8617   -0.3019    0.2021 C   0  0  0  0  0
    0.6145    1.9193    1.3092 N   0  0  0  0  0
    1.1688    1.9233   -0.8432 N   0  0  0  0  0
    2.0233   -0.8994    0.8257 N   0  0  0  0  0
    3.4000   -0.8144   -1.0379 O   0  0  0  0  0
    2.9308   -3.6911    1.2874 O   0  0  0  0  0
    5.7175    0.1522    0.5794 O   0  0  0  0  0
  1  4  1  0  0  0
  2  5  1  0  0  0
  3  8  1  0  0  0
  6 12  1  0  0  0
  7 11  1  0  0  0
  7 14  1  0  0  0
  9 10  1  0  0  0
  9 17  1  0  0  0
 10 18  1  0  0  0
 11 21  1  0  0  0
 12 22  1  0  0  0
 13 18  1  0  0  0
 14 19  1  0  0  0
 15  8  1  0  0  0
 16 13  1  0  0  0
 16 19  1  0  0  0
  1  3  2  0  0  0
  2  6  2  0  0  0
  4 10  2  0  0  0
  5 11  2  0  0  0
  7 12  2  0  0  0
  8  9  2  0  0  0
 13 17  2  0  0  0
 14 20  2  0  0  0
M  END
> <rmsd>
0.264556259

$$$$
ZINC92107857


 22 24  0  0  0  0  0  0  0  0999 V2000
    1.7745    5.1638   -1.6412 C   0  0  0  0  0
    1.5759    5.5639   -0.3178 C   0  0  0  0  0
    6.4838   -3.0887    2.0884 C   0  0  0  0  0
    1.7084    3.8126   -2.0041 C   0  0  0  0  0
    1.3046    4.6318    0.6894 C   0  0  0  0  0
    5.2570   -3.7406    1.9637 C   0  0  0  0  0
    6.6311   -1.7837    1.6183 C   0  0  0  0  0
    4.3247   -1.7828    0.8985 C   0  0  0  0  0
    1.4370    2.8626   -1.0050 C   0  0  0  0  0
    1.2436    3.2920    0.3049 C   0  0  0  0  0
    4.1775   -3.0877    1.3687 C   0  0  0  0  0
    5.5516   -1.1308    1.0232 C   0  0  0  0  0
    1.0614    1.0939    0.1309 C   0  0  0  0  0
    3.1754   -1.0874    0.2641 C   0  0  0  0  0
    0.2266   -1.2122   -0.4965 C   0  0  0  0  0
    0.8453   -0.2947    0.5782 C   0  0  0  0  0
    1.3199    1.4944   -1.0937 N   0  0  0  0  0
    1.0051    2.1399    1.0095 N   0  0  0  0  0
    2.0636   -0.9347    1.0642 N   0  0  0  0  0
    3.2677   -0.7183   -0.9036 O   0  0  0  0  0
    2.9874   -3.7434    1.2580 O   0  0  0  0  0
    5.7172    0.1445    0.5714 O   0  0  0  0  0
  1  2  1  0  0  0
  3  6  1  0  0  0
  4  9  1  0  0  0
  5 10  1  0  0  0
  7 12  1  0  0  0
  8 11  1  0  0  0
  8 14  1  0  0  0
  9 17  1  0  0  0
 10 18  1  0  0  0
 11 21  1  0  0  0
 12 22  1  0  0  0
 13 18  1  0  0  0
 14 19  1  0  0  0
 15 16  1  0  0  0
 16 13  1  0  0  0
 16 19  1  0  0  0
  1  4  2  0  0  0
  2  5  2  0  0  0
  3  7  2  0  0  0
  6 11  2  0  0  0
  8 12  2  0  0  0
  9 10  2  0  0  0
 13 17  2  0  0  0
 14 20  2  0  0  0
M  END
> <rmsd>
0.407634676

$$$$
ZINC92120758


 22 24  0  0  0  0  0  0  0  0999 V2000
    2.4002    2.3706    4.0426 C   0  0  0  0  0
    1.2487    2.5352    4.8126 C   0  0  0  0  0
    6.3949   -3.0917    2.1753 C   0  0  0  0  0
    2.2965    1.9798    2.7077 C   0  0  0  0  0
   -0.0063    2.3088    4.2476 C   0  0  0  0  0
    5.1520   -3.7091    2.0355 C   0  0  0  0  0
    6.5933   -1.8031    1.6792 C   0  0  0  0  0
    4.3059   -1.7495    0.9035 C   0  0  0  0  0
    1.0415    1.7534    2.1426 C   0  0  0  0  0
   -0.1100    1.9179    2.9125 C   0  0  0  0  0
    4.1075   -3.0381    1.3996 C   0  0  0  0  0
    5.5488   -1.1320    1.0433 C   0  0  0  0  0
    3.2139   -1.0480    0.2380 C   0  0  0  0  0
    0.1898    2.2121   -0.2858 C   0  0  0  0  0
    1.6836    2.1532   -0.3595 C   0  0  0  0  0
    0.9526    1.3271    0.6838 C   0  0  0  0  0
   -1.4655    1.6819    2.3315 C   0  0  0  0  0
    0.8829   -0.1637    0.4649 C   0  0  0  0  0
    2.0571   -0.8233    0.9895 N   0  0  0  0  0
    3.3250   -0.6963   -0.9477 O   0  0  0  0  0
    2.9008   -3.6599    1.2748 O   0  0  0  0  0
    5.7642    0.1267    0.5667 O   0  0  0  0  0
  1  2  1  0  0  0
  3  6  1  0  0  0
  4  9  1  0  0  0
  5 10  1  0  0  0
  7 12  1  0  0  0
  8 11  1  0  0  0
  8 13  1  0  0  0
 11 21  1  0  0  0
 12 22  1  0  0  0
 13 19  1  0  0  0
 14 15  1  0  0  0
 14 16  1  0  0  0
 15 16  1  0  0  0
 16  9  1  0  0  0
 16 18  1  0  0  0
 17 10  1  0  0  0
 18 19  1  0  0  0
  1  4  2  0  0  0
  2  5  2  0  0  0
  3  7  2  0  0  0
  6 11  2  0  0  0
  8 12  2  0  0  0
  9 10  2  0  0  0
 13 20  2  0  0  0
M  END
> <rmsd>
0.333626062

$$$$
ZINC92125659


 22 24  0  0  0  0  0  0  0  0999 V2000
   -2.1266    0.7323    4.6455 C   0  0  0  0  0
   -2.0879    1.9709    4.0052 C   0  0  0  0  0
   -1.0879   -0.1805    4.4621 C   0  0  0  0  0
    6.3907   -3.0920    2.1838 C   0  0  0  0  0
   -1.0105    2.2966    3.1813 C   0  0  0  0  0
   -0.0105    0.1453    3.6382 C   0  0  0  0  0
    5.1469   -3.7075    2.0427 C   0  0  0  0  0
    6.5926   -1.8049    1.6854 C   0  0  0  0  0
    4.3069   -1.7488    0.9045 C   0  0  0  0  0
    0.0282    1.3838    2.9978 C   0  0  0  0  0
    4.1051   -3.0358    1.4030 C   0  0  0  0  0
    5.5507   -1.1334    1.0457 C   0  0  0  0  0
    3.1976   -1.0336    0.2226 C   0  0  0  0  0
    0.1120    2.2205   -0.1901 C   0  0  0  0  0
    1.5967    2.1704   -0.4110 C   0  0  0  0  0
    0.9701    1.3273    0.6748 C   0  0  0  0  0
    1.1967    1.7364    2.1043 C   0  0  0  0  0
    0.8877   -0.1582    0.4547 C   0  0  0  0  0
    2.0492   -0.8120    0.9788 N   0  0  0  0  0
    3.3321   -0.6978   -0.9512 O   0  0  0  0  0
    2.8975   -3.6557    1.2769 O   0  0  0  0  0
    5.7695    0.1239    0.5668 O   0  0  0  0  0
  1  2  1  0  0  0
  3  6  1  0  0  0
  4  7  1  0  0  0
  5 10  1  0  0  0
  8 12  1  0  0  0
  9 11  1  0  0  0
  9 13  1  0  0  0
 11 21  1  0  0  0
 12 22  1  0  0  0
 13 19  1  0  0  0
 14 15  1  0  0  0
 14 16  1  0  0  0
 15 16  1  0  0  0
 16 17  1  0  0  0
 16 18  1  0  0  0
 17 10  1  0  0  0
 18 19  1  0  0  0
  1  3  2  0  0  0
  2  5  2  0  0  0
  4  8  2  0  0  0
  6 10  2  0  0  0
  7 11  2  0  0  0
  9 12  2  0  0  0
 13 20  2  0  0  0
M  END
> <rmsd>
0.318383008

$$$$
ZINC89461260


 19 20  0  0  0  0  0  0  0  0999 V2000
    6.3331   -2.9460    2.4114 C   0  0  0  0  0
    5.1273   -3.6192    2.2157 C   0  0  0  0  0
    6.5220   -1.6788    1.8596 C   0  0  0  0  0
    1.7826    1.9777    0.9045 C   0  0  0  0  0
    1.4691    3.3606    0.7651 C   0  0  0  0  0
    4.2991   -1.7583    0.9165 C   0  0  0  0  0
    4.1103   -3.0255    1.4682 C   0  0  0  0  0
    5.5049   -1.0851    1.1121 C   0  0  0  0  0
    0.8842    1.1737    0.2381 C   0  0  0  0  0
    0.3429    3.5609   -0.0027 C   0  0  0  0  0
    3.2360   -1.1375    0.1342 C   0  0  0  0  0
   -0.4242   -0.9411    0.6937 C   0  0  0  0  0
    0.8642   -0.3364    0.1397 C   0  0  0  0  0
    2.0184   -0.9196    0.7852 N   0  0  0  0  0
    3.4234   -0.8454   -1.0579 O   0  0  0  0  0
    2.9396   -3.7009    1.2904 O   0  0  0  0  0
    5.7103    0.1541    0.5827 O   0  0  0  0  0
   -0.3313    2.0856   -0.5514 S   0  0  0  0  0
   -0.3889    5.0518   -0.4253 Cl  0  0  0  0  0
  1  2  1  0  0  0
  3  8  1  0  0  0
  4  5  1  0  0  0
  6  7  1  0  0  0
  6 11  1  0  0  0
  7 16  1  0  0  0
  8 17  1  0  0  0
  9 18  1  0  0  0
 10 18  1  0  0  0
 10 19  1  0  0  0
 11 14  1  0  0  0
 12 13  1  0  0  0
 13  9  1  0  0  0
 13 14  1  0  0  0
  1  3  2  0  0  0
  2  7  2  0  0  0
  4  9  2  0  0  0
  5 10  2  0  0  0
  6  8  2  0  0  0
 11 15  2  0  0  0
M  END
> <rmsd>
0.262508065

$$$$
ZINC89460886


 19 20  0  0  0  0  0  0  0  0999 V2000
    6.4909   -3.0632    2.1153 C   0  0  0  0  0
    5.2735   -3.7309    1.9830 C   0  0  0  0  0
    6.6262   -1.7588    1.6399 C   0  0  0  0  0
    1.3805    1.5960   -1.1060 C   0  0  0  0  0
    1.5303    3.0128   -1.0895 C   0  0  0  0  0
    4.3267   -1.7900    0.8997 C   0  0  0  0  0
    4.1914   -3.0944    1.3752 C   0  0  0  0  0
    5.5441   -1.1223    1.0320 C   0  0  0  0  0
    1.0709    1.0940    0.1389 C   0  0  0  0  0
    1.3294    3.5398    0.1674 C   0  0  0  0  0
    3.1954   -1.1245    0.2635 C   0  0  0  0  0
    0.2422   -1.1816   -0.5919 C   0  0  0  0  0
    0.8326   -0.3454    0.5416 C   0  0  0  0  0
    2.0419   -0.9630    1.0364 N   0  0  0  0  0
    3.2725   -0.7476   -0.9171 O   0  0  0  0  0
    3.0105   -3.7652    1.2572 O   0  0  0  0  0
    5.6980    0.1528    0.5753 O   0  0  0  0  0
    0.9620    2.3284    1.3206 S   0  0  0  0  0
    1.4098    5.1845    0.6422 Cl  0  0  0  0  0
  1  2  1  0  0  0
  3  8  1  0  0  0
  4  5  1  0  0  0
  6  7  1  0  0  0
  6 11  1  0  0  0
  7 16  1  0  0  0
  8 17  1  0  0  0
  9 18  1  0  0  0
 10 18  1  0  0  0
 10 19  1  0  0  0
 11 14  1  0  0  0
 12 13  1  0  0  0
 13  9  1  0  0  0
 13 14  1  0  0  0
  1  3  2  0  0  0
  2  7  2  0  0  0
  4  9  2  0  0  0
  5 10  2  0  0  0
  6  8  2  0  0  0
 11 15  2  0  0  0
M  END
> <rmsd>
0.419195205

$$$$
ZINC92120820


 21 22  0  0  0  0  0  0  0  0999 V2000
    6.3532   -2.9676    2.3841 C   0  0  0  0  0
    1.6032    1.8025    1.1144 C   0  0  0  0  0
    5.1443   -3.6380    2.1977 C   0  0  0  0  0
    6.5386   -1.6981    1.8366 C   0  0  0  0  0
    1.4843    3.1919    1.1472 C   0  0  0  0  0
    4.3059   -1.7693    0.9161 C   0  0  0  0  0
    0.8791    1.0625    0.1797 C   0  0  0  0  0
    4.1206   -3.0388    1.4637 C   0  0  0  0  0
    5.5148   -1.0990    1.1026 C   0  0  0  0  0
    0.6412    3.8412    0.2453 C   0  0  0  0  0
    0.0361    1.7118   -0.7222 C   0  0  0  0  0
   -0.0829    3.1012   -0.6894 C   0  0  0  0  0
    3.2358   -1.1428    0.1481 C   0  0  0  0  0
    1.0003   -0.3321    0.1489 N   0  0  0  0  0
    2.0320   -0.9295    0.8161 N   0  0  0  0  0
    3.4202   -0.8140   -1.0355 O   0  0  0  0  0
    2.9470   -3.7113    1.2947 O   0  0  0  0  0
    5.7168    0.1424    0.5771 O   0  0  0  0  0
    0.5270    5.1754    0.2767 F   0  0  0  0  0
   -0.6645    1.0104   -1.6246 F   0  0  0  0  0
   -0.8924    3.7247   -1.5554 F   0  0  0  0  0
  1  3  1  0  0  0
  2  7  1  0  0  0
  4  9  1  0  0  0
  5 10  1  0  0  0
  6  8  1  0  0  0
  6 13  1  0  0  0
  7 14  1  0  0  0
  8 17  1  0  0  0
  9 18  1  0  0  0
 10 19  1  0  0  0
 11 12  1  0  0  0
 11 20  1  0  0  0
 12 21  1  0  0  0
 13 15  1  0  0  0
 14 15  1  0  0  0
  1  4  2  0  0  0
  2  5  2  0  0  0
  3  8  2  0  0  0
  6  9  2  0  0  0
  7 11  2  0  0  0
 10 12  2  0  0  0
 13 16  2  0  0  0
M  END
> <rmsd>
0.24402453

$$$$
ZINC93356322


 20 21  0  0  0  0  0  0  0  0999 V2000
   -2.0161   -0.5503   -0.0191 C   0  0  0  0  0
   -1.5475   -1.6969   -0.6606 C   0  0  0  0  0
   -1.2202    0.5940    0.0335 C   0  0  0  0  0
   -0.2830   -1.6991   -1.2494 C   0  0  0  0  0
    3.6336   -2.5078    2.1354 C   0  0  0  0  0
    3.7083   -1.2642    1.5572 C   0  0  0  0  0
    0.0443    0.5917   -0.5553 C   0  0  0  0  0
    0.5129   -0.5548   -1.1969 C   0  0  0  0  0
    3.2704   -1.4643    0.2343 C   0  0  0  0  0
    4.1458   -0.0696    2.2165 C   0  0  0  0  0
    2.9419   -2.7350   -0.0135 N   0  0  0  0  0
    3.1642   -0.5257   -0.7375 N   0  0  0  0  0
    5.2070    0.5533    1.7095 N   0  0  0  0  0
    3.1737   -3.3446    1.1616 N   0  0  0  0  0
    3.5120    0.4618    3.3585 N   0  0  0  0  0
    2.1320   -1.8104   -2.7217 O   0  0  0  0  0
    2.1142    0.6436   -2.7833 O   0  0  0  0  0
    5.7268   -0.0910    0.5823 O   0  0  0  0  0
    0.8003    1.6971   -0.4979 F   0  0  0  0  0
    2.0949   -0.5632   -1.9359 S   0  0  0  0  0
  1  2  1  0  0  0
  3  7  1  0  0  0
  4  8  1  0  0  0
  5 14  1  0  0  0
  6  9  1  0  0  0
  6 10  1  0  0  0
  7 19  1  0  0  0
  9 12  1  0  0  0
 10 15  1  0  0  0
 13 18  1  0  0  0
 14 11  1  0  0  0
 20  8  1  0  0  0
 20 12  1  0  0  0
  1  3  2  0  0  0
  2  4  2  0  0  0
  5  6  2  0  0  0
  7  8  2  0  0  0
  9 11  2  0  0  0
 10 13  2  0  0  0
 20 16  2  0  0  0
 20 17  2  0  0  0
M  CHG  1  12  -1
M  END
> <rmsd>
0.477831036

$$$$
ZINC01237294


 22 23  0  0  0  0  0  0  0  0999 V2000
    0.0981    3.9302   -1.0679 C   0  0  0  0  0
   -0.0553    3.6656    0.2930 C   0  0  0  0  0
    0.8657    3.0781   -1.8619 C   0  0  0  0  0
    0.5589    2.5489    0.8600 C   0  0  0  0  0
    1.4800    1.9615   -1.2949 C   0  0  0  0  0
    5.5970   -0.3085    4.3112 C   0  0  0  0  0
    6.0340    0.0025    3.0236 C   0  0  0  0  0
    3.6261   -1.3580    3.3888 C   0  0  0  0  0
    4.0630   -1.0471    2.1011 C   0  0  0  0  0
    1.3266    1.6969    0.0660 C   0  0  0  0  0
    4.3930   -0.9888    4.4938 C   0  0  0  0  0
    5.2670   -0.3667    1.9186 C   0  0  0  0  0
    3.2330   -1.4509    0.9462 C   0  0  0  0  0
    2.9170   -2.7435    0.6775 C   0  0  0  0  0
    2.7418   -0.3798    0.0006 C   0  0  0  0  0
    2.0660   -3.1493   -0.5077 C   0  0  0  0  0
    4.7148   -4.0924    1.6131 C   0  0  0  0  0
    1.9500    0.5634    0.6418 N   0  0  0  0  0
    3.3205   -3.8180    1.4325 N   0  0  0  0  0
    3.0552   -0.4119   -1.1850 O   0  0  0  0  0
    3.9680   -1.2939    5.7503 O   0  0  0  0  0
    5.7181   -0.0513    0.6710 O   0  0  0  0  0
  1  2  1  0  0  0
  3  5  1  0  0  0
  4 10  1  0  0  0
  6 11  1  0  0  0
  7 12  1  0  0  0
  8  9  1  0  0  0
  9 13  1  0  0  0
 10 18  1  0  0  0
 11 21  1  0  0  0
 12 22  1  0  0  0
 13 15  1  0  0  0
 14 19  1  0  0  0
 15 18  1  0  0  0
 16 14  1  0  0  0
 17 19  1  0  0  0
  1  3  2  0  0  0
  2  4  2  0  0  0
  5 10  2  0  0  0
  6  7  2  0  0  0
  8 11  2  0  0  0
  9 12  2  0  0  0
 13 14  2  0  0  0
 15 20  2  0  0  0
M  END
> <rmsd>
0.503796816

$$$$
ZINC92120573


 22 24  0  0  0  0  0  0  0  0999 V2000
    1.0339    2.5468   -1.4199 C   0  0  0  0  0
    0.8654    3.2933   -0.2568 C   0  0  0  0  0
    6.3585   -3.0143    2.3502 C   0  0  0  0  0
    0.9712    1.1520   -1.3727 C   0  0  0  0  0
    0.6254    2.6469    0.9527 C   0  0  0  0  0
    5.1420   -3.6807    2.2034 C   0  0  0  0  0
    6.5399   -1.7580    1.7718 C   0  0  0  0  0
    4.2882   -1.8346    0.8994 C   0  0  0  0  0
    0.7265    0.4801   -0.1639 C   0  0  0  0  0
    0.5381    1.2521    0.9919 C   0  0  0  0  0
    4.1068   -3.0909    1.4779 C   0  0  0  0  0
    5.5047   -1.1682    1.0464 C   0  0  0  0  0
    3.1860   -1.2066    0.1263 C   0  0  0  0  0
   -0.8434   -1.4317    1.8936 C   0  0  0  0  0
   -0.5684   -1.6500    0.4037 C   0  0  0  0  0
   -0.9502    0.0371    2.2754 C   0  0  0  0  0
    0.7272   -1.0313   -0.1421 C   0  0  0  0  0
    1.9026   -1.5409    0.5258 N   0  0  0  0  0
    3.4593   -0.4623   -0.8117 O   0  0  0  0  0
    0.3267    0.6777    2.2174 O   0  0  0  0  0
    2.9260   -3.7594    1.3478 O   0  0  0  0  0
    5.7030    0.0603    0.4902 O   0  0  0  0  0
  1  2  1  0  0  0
  3  6  1  0  0  0
  4  9  1  0  0  0
  5 10  1  0  0  0
  7 12  1  0  0  0
  8 11  1  0  0  0
  8 13  1  0  0  0
 10 20  1  0  0  0
 11 21  1  0  0  0
 12 22  1  0  0  0
 13 18  1  0  0  0
 14 15  1  0  0  0
 14 16  1  0  0  0
 15 17  1  0  0  0
 16 20  1  0  0  0
 17  9  1  0  0  0
 17 18  1  0  0  0
  1  4  2  0  0  0
  2  5  2  0  0  0
  3  7  2  0  0  0
  6 11  2  0  0  0
  8 12  2  0  0  0
  9 10  2  0  0  0
 13 19  2  0  0  0
M  END
> <rmsd>
0.366359442

$$$$
ZINC92120573


 22 24  0  0  0  0  0  0  0  0999 V2000
    1.6630    3.2810    1.0583 C   0  0  0  0  0
    0.7245    3.9732    0.2987 C   0  0  0  0  0
    6.3418   -2.9402    2.4192 C   0  0  0  0  0
    1.7072    1.8834    1.0232 C   0  0  0  0  0
   -0.1811    3.2693   -0.4878 C   0  0  0  0  0
    5.1404   -3.6205    2.2212 C   0  0  0  0  0
    6.5250   -1.6729    1.8659 C   0  0  0  0  0
    4.3052   -1.7664    0.9166 C   0  0  0  0  0
    0.8085    1.1486    0.2318 C   0  0  0  0  0
   -0.1494    1.8715   -0.5000 C   0  0  0  0  0
    4.1221   -3.0337    1.4700 C   0  0  0  0  0
    5.5068   -1.0860    1.1147 C   0  0  0  0  0
    3.2211   -1.1414    0.1159 C   0  0  0  0  0
   -1.6183   -0.9002   -0.2617 C   0  0  0  0  0
   -0.4093   -1.0356    0.6671 C   0  0  0  0  0
   -2.0366    0.5431   -0.5061 C   0  0  0  0  0
    0.8631   -0.3658    0.1271 C   0  0  0  0  0
    2.0213   -0.9413    0.7783 N   0  0  0  0  0
    3.4300   -0.8616   -1.0616 O   0  0  0  0  0
   -1.0658    1.2353   -1.2982 O   0  0  0  0  0
    2.9558   -3.7159    1.2899 O   0  0  0  0  0
    5.7066    0.1535    0.5838 O   0  0  0  0  0
  1  2  1  0  0  0
  3  6  1  0  0  0
  4  9  1  0  0  0
  5 10  1  0  0  0
  7 12  1  0  0  0
  8 11  1  0  0  0
  8 13  1  0  0  0
 10 20  1  0  0  0
 11 21  1  0  0  0
 12 22  1  0  0  0
 13 18  1  0  0  0
 14 15  1  0  0  0
 14 16  1  0  0  0
 15 17  1  0  0  0
 16 20  1  0  0  0
 17  9  1  0  0  0
 17 18  1  0  0  0
  1  4  2  0  0  0
  2  5  2  0  0  0
  3  7  2  0  0  0
  6 11  2  0  0  0
  8 12  2  0  0  0
  9 10  2  0  0  0
 13 19  2  0  0  0
M  END
> <rmsd>
0.276457161

$$$$
ZINC92120573


 22 24  0  0  0  0  0  0  0  0999 V2000
   -0.2700   -2.8884   -1.6432 C   0  0  0  0  0
   -0.7854   -2.2278   -2.7506 C   0  0  0  0  0
    6.3985   -3.1998    2.0945 C   0  0  0  0  0
    0.2681   -2.1570   -0.5813 C   0  0  0  0  0
   -0.7878   -0.8371   -2.7814 C   0  0  0  0  0
    5.1282   -3.7638    1.9780 C   0  0  0  0  0
    6.6367   -1.9121    1.6140 C   0  0  0  0  0
    4.3341   -1.7527    0.9000 C   0  0  0  0  0
    0.3159   -0.7468   -0.6004 C   0  0  0  0  0
   -0.2749   -0.1008   -1.7036 C   0  0  0  0  0
    4.0960   -3.0404    1.3807 C   0  0  0  0  0
    5.6044   -1.1886    1.0167 C   0  0  0  0  0
    3.2350   -0.9822    0.2632 C   0  0  0  0  0
    0.2410    2.4097    0.1869 C   0  0  0  0  0
    1.4015    1.4259    0.3003 C   0  0  0  0  0
   -0.8992    1.8941   -0.6722 C   0  0  0  0  0
    0.9630   -0.0200    0.5750 C   0  0  0  0  0
    2.1291   -0.7384    1.0608 N   0  0  0  0  0
    3.3497   -0.6293   -0.9076 O   0  0  0  0  0
   -0.3875    1.2606   -1.8436 O   0  0  0  0  0
    2.8620   -3.6106    1.2780 O   0  0  0  0  0
    5.8589    0.0683    0.5547 O   0  0  0  0  0
  1  2  1  0  0  0
  3  6  1  0  0  0
  4  9  1  0  0  0
  5 10  1  0  0  0
  7 12  1  0  0  0
  8 11  1  0  0  0
  8 13  1  0  0  0
 10 20  1  0  0  0
 11 21  1  0  0  0
 12 22  1  0  0  0
 13 18  1  0  0  0
 14 15  1  0  0  0
 14 16  1  0  0  0
 15 17  1  0  0  0
 16 20  1  0  0  0
 17  9  1  0  0  0
 17 18  1  0  0  0
  1  4  2  0  0  0
  2  5  2  0  0  0
  3  7  2  0  0  0
  6 11  2  0  0  0
  8 12  2  0  0  0
  9 10  2  0  0  0
 13 19  2  0  0  0
M  END
> <rmsd>
0.330884963

$$$$
ZINC92120567


 22 24  0  0  0  0  0  0  0  0999 V2000
   -1.6014   -2.3508    2.1055 C   0  0  0  0  0
   -2.6317   -1.4871    2.4525 C   0  0  0  0  0
    6.3650   -3.1680    2.1715 C   0  0  0  0  0
   -0.4667   -1.8594    1.4546 C   0  0  0  0  0
   -2.5381   -0.1392    2.1224 C   0  0  0  0  0
    5.0974   -3.7345    2.0380 C   0  0  0  0  0
    6.6137   -1.8896    1.6718 C   0  0  0  0  0
    4.3273   -1.7446    0.9048 C   0  0  0  0  0
   -0.3245   -0.4910    1.1412 C   0  0  0  0  0
   -1.4131    0.3507    1.4429 C   0  0  0  0  0
    4.0786   -3.0230    1.4047 C   0  0  0  0  0
    5.5949   -1.1780    1.0384 C   0  0  0  0  0
    3.2424   -0.9868    0.2297 C   0  0  0  0  0
    0.3614    2.3561   -0.2806 C   0  0  0  0  0
    1.2588    1.4835    0.5917 C   0  0  0  0  0
   -1.1031    1.9632   -0.2126 C   0  0  0  0  0
    0.9643   -0.0196    0.4733 C   0  0  0  0  0
    2.1188   -0.7278    0.9979 N   0  0  0  0  0
    3.3826   -0.6563   -0.9449 O   0  0  0  0  0
   -1.4771    1.6878    1.1364 O   0  0  0  0  0
    2.8472   -3.5954    1.2860 O   0  0  0  0  0
    5.8594    0.0700    0.5581 O   0  0  0  0  0
  1  2  1  0  0  0
  3  6  1  0  0  0
  4  9  1  0  0  0
  5 10  1  0  0  0
  7 12  1  0  0  0
  8 11  1  0  0  0
  8 13  1  0  0  0
 10 20  1  0  0  0
 11 21  1  0  0  0
 12 22  1  0  0  0
 13 18  1  0  0  0
 14 15  1  0  0  0
 14 16  1  0  0  0
 15 17  1  0  0  0
 16 20  1  0  0  0
 17  9  1  0  0  0
 17 18  1  0  0  0
  1  4  2  0  0  0
  2  5  2  0  0  0
  3  7  2  0  0  0
  6 11  2  0  0  0
  8 12  2  0  0  0
  9 10  2  0  0  0
 13 19  2  0  0  0
M  END
> <rmsd>
0.324470937

$$$$
ZINC92120567


 22 24  0  0  0  0  0  0  0  0999 V2000
    2.2249    3.1765    0.5867 C   0  0  0  0  0
    1.6257    3.7485   -0.5276 C   0  0  0  0  0
    6.5239   -3.0657    2.0787 C   0  0  0  0  0
    1.9352    1.8545    0.9346 C   0  0  0  0  0
    0.7163    3.0073   -1.2747 C   0  0  0  0  0
    5.3116   -3.7441    1.9530 C   0  0  0  0  0
    6.6416   -1.7558    1.6141 C   0  0  0  0  0
    4.3347   -1.8026    0.8978 C   0  0  0  0  0
    1.0474    1.0639    0.1745 C   0  0  0  0  0
    0.4020    1.6899   -0.9098 C   0  0  0  0  0
    4.2171   -3.1126    1.3625 C   0  0  0  0  0
    5.5470   -1.1243    1.0237 C   0  0  0  0  0
    3.1691   -1.1300    0.2685 C   0  0  0  0  0
   -1.2242   -1.0466   -0.8173 C   0  0  0  0  0
    0.2471   -1.3034   -0.5059 C   0  0  0  0  0
   -1.5583    0.4280   -0.9513 C   0  0  0  0  0
    0.8173   -0.3872    0.5876 C   0  0  0  0  0
    2.0442   -0.9994    1.0665 N   0  0  0  0  0
    3.2513   -0.7538   -0.8978 O   0  0  0  0  0
   -0.5473    1.0957   -1.7046 O   0  0  0  0  0
    3.0416   -3.7938    1.2507 O   0  0  0  0  0
    5.6837    0.1564    0.5773 O   0  0  0  0  0
  1  2  1  0  0  0
  3  6  1  0  0  0
  4  9  1  0  0  0
  5 10  1  0  0  0
  7 12  1  0  0  0
  8 11  1  0  0  0
  8 13  1  0  0  0
 10 20  1  0  0  0
 11 21  1  0  0  0
 12 22  1  0  0  0
 13 18  1  0  0  0
 14 15  1  0  0  0
 14 16  1  0  0  0
 15 17  1  0  0  0
 16 20  1  0  0  0
 17  9  1  0  0  0
 17 18  1  0  0  0
  1  4  2  0  0  0
  2  5  2  0  0  0
  3  7  2  0  0  0
  6 11  2  0  0  0
  8 12  2  0  0  0
  9 10  2  0  0  0
 13 19  2  0  0  0
M  END
> <rmsd>
0.463273644

$$$$
ZINC92103489


 22 23  0  0  0  0  0  0  0  0999 V2000
    6.2797   -3.1059    2.3208 C   0  0  0  0  0
   -1.0070    1.0434    0.7774 C   0  0  0  0  0
    0.9803    1.9179   -0.2823 C   0  0  0  0  0
   -1.5289    2.3341    0.8638 C   0  0  0  0  0
    0.4584    3.2085   -0.1958 C   0  0  0  0  0
    5.0156   -3.6723    2.1576 C   0  0  0  0  0
    6.5576   -1.8518    1.7770 C   0  0  0  0  0
    4.3072   -1.7307    0.9065 C   0  0  0  0  0
    0.2476    0.8353    0.2044 C   0  0  0  0  0
   -0.7962    3.4166    0.3772 C   0  0  0  0  0
    4.0294   -2.9848    1.4504 C   0  0  0  0  0
    5.5713   -1.1642    1.0698 C   0  0  0  0  0
    3.2762   -1.0119    0.1664 C   0  0  0  0  0
   -1.5820    5.2445    1.9247 C   0  0  0  0  0
   -2.6591    4.9575   -0.3365 C   0  0  0  0  0
    2.0249   -0.4349    2.2577 C   0  0  0  0  0
    0.8101   -0.5536    0.1109 C   0  0  0  0  0
   -1.3556    4.7961    0.4684 C   0  0  0  0  0
    2.0799   -0.6784    0.8231 N   0  0  0  0  0
    3.5311   -0.7256   -1.0090 O   0  0  0  0  0
    2.8006   -3.5566    1.3038 O   0  0  0  0  0
    5.8640    0.0603    0.5474 O   0  0  0  0  0
  1  6  1  0  0  0
  2  9  1  0  0  0
  3  5  1  0  0  0
  4 10  1  0  0  0
  7 12  1  0  0  0
  8 11  1  0  0  0
  8 13  1  0  0  0
 11 21  1  0  0  0
 12 22  1  0  0  0
 13 19  1  0  0  0
 14 18  1  0  0  0
 15 18  1  0  0  0
 16 19  1  0  0  0
 17  9  1  0  0  0
 17 19  1  0  0  0
 18 10  1  0  0  0
  1  7  2  0  0  0
  2  4  2  0  0  0
  3  9  2  0  0  0
  5 10  2  0  0  0
  6 11  2  0  0  0
  8 12  2  0  0  0
 13 20  2  0  0  0
M  END
> <rmsd>
0.437999159

$$$$
ZINC67840711


 22 24  0  0  0  0  0  0  0  0999 V2000
    6.3302   -2.9527    2.3978 C   0  0  0  0  0
    0.4580    6.6175    2.2371 C   0  0  0  0  0
    5.1205   -3.6201    2.2062 C   0  0  0  0  0
    6.5219   -1.6847    1.8489 C   0  0  0  0  0
    0.7391    5.7557    1.1501 C   0  0  0  0  0
    0.5840    1.9843    1.3692 C   0  0  0  0  0
    0.1419    5.8022    3.2990 C   0  0  0  0  0
    4.2941   -1.7517    0.9164 C   0  0  0  0  0
    4.1024   -3.0196    1.4655 C   0  0  0  0  0
    5.5039   -1.0843    1.1081 C   0  0  0  0  0
    0.5751    4.4754    1.6253 C   0  0  0  0  0
    0.7441    3.2640    0.9079 C   0  0  0  0  0
    0.8751    1.1865    0.2493 C   0  0  0  0  0
    3.2303   -1.1238    0.1409 C   0  0  0  0  0
    0.8622   -0.3121    0.1592 C   0  0  0  0  0
    1.1916    1.9156   -0.8246 N   0  0  0  0  0
    2.0166   -0.9023    0.7978 N   0  0  0  0  0
    3.4137   -0.8290   -1.0513 O   0  0  0  0  0
    0.2112    4.4950    2.9343 O   0  0  0  0  0
    1.1066    3.2361   -0.4001 O   0  0  0  0  0
    2.9284   -3.6899    1.2901 O   0  0  0  0  0
    5.7124    0.1551    0.5809 O   0  0  0  0  0
  1  3  1  0  0  0
  2  5  1  0  0  0
  4 10  1  0  0  0
  6 13  1  0  0  0
  7 19  1  0  0  0
  8  9  1  0  0  0
  8 14  1  0  0  0
  9 21  1  0  0  0
 10 22  1  0  0  0
 11 12  1  0  0  0
 11 19  1  0  0  0
 12 20  1  0  0  0
 14 17  1  0  0  0
 15 13  1  0  0  0
 15 17  1  0  0  0
 16 20  1  0  0  0
  1  4  2  0  0  0
  2  7  2  0  0  0
  3  9  2  0  0  0
  5 11  2  0  0  0
  6 12  2  0  0  0
  8 10  2  0  0  0
 13 16  2  0  0  0
 14 18  2  0  0  0
M  END
> <rmsd>
0.267881185

$$$$
ZINC92126674


 22 23  0  0  0  0  0  0  0  0999 V2000
    6.3360   -2.9360    2.4177 C   0  0  0  0  0
    0.5327    3.1447    1.4534 C   0  0  0  0  0
    5.1341   -3.6157    2.2203 C   0  0  0  0  0
    6.5196   -1.6687    1.8646 C   0  0  0  0  0
    0.5245    1.7551    1.4102 C   0  0  0  0  0
    0.8686    3.8682    0.3144 C   0  0  0  0  0
    4.2994   -1.7609    0.9164 C   0  0  0  0  0
    4.1158   -3.0281    1.4696 C   0  0  0  0  0
    5.5013   -1.0812    1.1139 C   0  0  0  0  0
    0.8571    1.1414    0.2132 C   0  0  0  0  0
    1.1858    3.1601   -0.8335 C   0  0  0  0  0
    0.8780    5.3224    0.3579 C   0  0  0  0  0
    3.2350   -1.1465    0.1308 C   0  0  0  0  0
    1.5547    3.8823   -2.0886 C   0  0  0  0  0
   -0.4089    6.0137    0.7022 C   0  0  0  0  0
    0.8591   -0.3576    0.1297 C   0  0  0  0  0
    1.1887    1.8105   -0.9137 N   0  0  0  0  0
    2.0148   -0.9339    0.7787 N   0  0  0  0  0
    1.8614    6.0291    0.1288 O   0  0  0  0  0
    3.4236   -0.8552   -1.0612 O   0  0  0  0  0
    2.9490   -3.7097    1.2900 O   0  0  0  0  0
    5.7016    0.1583    0.5832 O   0  0  0  0  0
  1  3  1  0  0  0
  2  5  1  0  0  0
  4  9  1  0  0  0
  6 11  1  0  0  0
  6 12  1  0  0  0
  7  8  1  0  0  0
  7 13  1  0  0  0
  8 21  1  0  0  0
  9 22  1  0  0  0
 10 17  1  0  0  0
 13 18  1  0  0  0
 14 11  1  0  0  0
 15 12  1  0  0  0
 16 10  1  0  0  0
 16 18  1  0  0  0
  1  4  2  0  0  0
  2  6  2  0  0  0
  3  8  2  0  0  0
  5 10  2  0  0  0
  7  9  2  0  0  0
 11 17  2  0  0  0
 12 19  2  0  0  0
 13 20  2  0  0  0
M  END
> <rmsd>
0.278323561

$$$$
ZINC92126674


 22 23  0  0  0  0  0  0  0  0999 V2000
    6.3309   -2.9322    2.4254 C   0  0  0  0  0
    1.1797    3.2696   -0.8136 C   0  0  0  0  0
    5.1294   -3.6121    2.2263 C   0  0  0  0  0
    6.5161   -1.6661    1.8703 C   0  0  0  0  0
    1.1917    1.8834   -0.9224 C   0  0  0  0  0
    0.8393    3.8635    0.3967 C   0  0  0  0  0
    4.2982   -1.7597    0.9168 C   0  0  0  0  0
    4.1130   -3.0258    1.4720 C   0  0  0  0  0
    5.4997   -1.0798    1.1159 C   0  0  0  0  0
    0.8582    1.1419    0.1995 C   0  0  0  0  0
    0.5213    3.0333    1.4595 C   0  0  0  0  0
    0.8258    5.3136    0.5123 C   0  0  0  0  0
    3.2358   -1.1466    0.1274 C   0  0  0  0  0
    0.1474    3.6132    2.7851 C   0  0  0  0  0
    2.1116    6.0417    0.2489 C   0  0  0  0  0
    0.8601   -0.3573    0.1189 C   0  0  0  0  0
    0.5220    1.6830    1.3919 N   0  0  0  0  0
    2.0141   -0.9326    0.7718 N   0  0  0  0  0
   -0.1601    5.9886    0.8147 O   0  0  0  0  0
    3.4275   -0.8577   -1.0647 O   0  0  0  0  0
    2.9465   -3.7075    1.2909 O   0  0  0  0  0
    5.7016    0.1586    0.5834 O   0  0  0  0  0
  1  3  1  0  0  0
  2  5  1  0  0  0
  4  9  1  0  0  0
  6 11  1  0  0  0
  6 12  1  0  0  0
  7  8  1  0  0  0
  7 13  1  0  0  0
  8 21  1  0  0  0
  9 22  1  0  0  0
 10 17  1  0  0  0
 13 18  1  0  0  0
 14 11  1  0  0  0
 15 12  1  0  0  0
 16 10  1  0  0  0
 16 18  1  0  0  0
  1  4  2  0  0  0
  2  6  2  0  0  0
  3  8  2  0  0  0
  5 10  2  0  0  0
  7  9  2  0  0  0
 11 17  2  0  0  0
 12 19  2  0  0  0
 13 20  2  0  0  0
M  END
> <rmsd>
0.277318329

$$$$
ZINC92122122


 22 23  0  0  0  0  0  0  0  0999 V2000
    6.3414   -2.9347    2.4174 C   0  0  0  0  0
    1.1844    1.8729   -0.9179 C   0  0  0  0  0
    1.1844    3.2667   -0.8627 C   0  0  0  0  0
    5.1412   -3.6174    2.2195 C   0  0  0  0  0
    6.5218   -1.6667    1.8649 C   0  0  0  0  0
    0.5203    3.1747    1.4585 C   0  0  0  0  0
    4.3018   -1.7639    0.9167 C   0  0  0  0  0
    0.8522    1.1300    0.2150 C   0  0  0  0  0
    0.5202    1.7809    1.4032 C   0  0  0  0  0
    0.8525    3.9176    0.3255 C   0  0  0  0  0
    4.1214   -3.0320    1.4692 C   0  0  0  0  0
    5.5021   -1.0814    1.1145 C   0  0  0  0  0
    3.2359   -1.1520    0.1315 C   0  0  0  0  0
    0.1597    1.0065    2.6283 C   0  0  0  0  0
    1.1982    6.1074   -0.7905 C   0  0  0  0  0
    0.4966    6.0132    1.6069 C   0  0  0  0  0
    0.8580   -0.3690    0.1307 C   0  0  0  0  0
    2.0150   -0.9427    0.7794 N   0  0  0  0  0
    0.8536    5.3268    0.3811 N   0  0  0  0  0
    3.4238   -0.8596   -1.0606 O   0  0  0  0  0
    2.9563   -3.7164    1.2893 O   0  0  0  0  0
    5.6992    0.1589    0.5844 O   0  0  0  0  0
  1  4  1  0  0  0
  2  8  1  0  0  0
  3 10  1  0  0  0
  5 12  1  0  0  0
  6  9  1  0  0  0
  7 11  1  0  0  0
  7 13  1  0  0  0
 10 19  1  0  0  0
 11 21  1  0  0  0
 12 22  1  0  0  0
 13 18  1  0  0  0
 14  9  1  0  0  0
 15 19  1  0  0  0
 16 19  1  0  0  0
 17  8  1  0  0  0
 17 18  1  0  0  0
  1  5  2  0  0  0
  2  3  2  0  0  0
  4 11  2  0  0  0
  6 10  2  0  0  0
  7 12  2  0  0  0
  8  9  2  0  0  0
 13 20  2  0  0  0
M  END
> <rmsd>
0.284760535

$$$$
ZINC92122122


 22 23  0  0  0  0  0  0  0  0999 V2000
    6.3332   -2.9274    2.4298 C   0  0  0  0  0
    1.4360    1.7494    1.2952 C   0  0  0  0  0
    1.4420    3.1411    1.3893 C   0  0  0  0  0
    5.1342   -3.6112    2.2292 C   0  0  0  0  0
    6.5153   -1.6609    1.8741 C   0  0  0  0  0
    0.2776    3.2889   -0.7225 C   0  0  0  0  0
    4.2992   -1.7624    0.9171 C   0  0  0  0  0
    0.8510    1.1275    0.1921 C   0  0  0  0  0
    0.2717    1.8972   -0.8167 C   0  0  0  0  0
    0.8627    3.9108    0.3806 C   0  0  0  0  0
    4.1172   -3.0288    1.4728 C   0  0  0  0  0
    5.4983   -1.0785    1.1178 C   0  0  0  0  0
    3.2362   -1.1534    0.1256 C   0  0  0  0  0
   -0.3592    1.2536   -2.0076 C   0  0  0  0  0
    1.4728    5.9733    1.6193 C   0  0  0  0  0
    0.2813    6.1274   -0.5728 C   0  0  0  0  0
    0.8579   -0.3718    0.1125 C   0  0  0  0  0
    2.0126   -0.9428    0.7678 N   0  0  0  0  0
    0.8681    5.3179    0.4767 N   0  0  0  0  0
    3.4288   -0.8646   -1.0666 O   0  0  0  0  0
    2.9533   -3.7144    1.2903 O   0  0  0  0  0
    5.6969    0.1601    0.5846 O   0  0  0  0  0
  1  4  1  0  0  0
  2  8  1  0  0  0
  3 10  1  0  0  0
  5 12  1  0  0  0
  6  9  1  0  0  0
  7 11  1  0  0  0
  7 13  1  0  0  0
 10 19  1  0  0  0
 11 21  1  0  0  0
 12 22  1  0  0  0
 13 18  1  0  0  0
 14  9  1  0  0  0
 15 19  1  0  0  0
 16 19  1  0  0  0
 17  8  1  0  0  0
 17 18  1  0  0  0
  1  5  2  0  0  0
  2  3  2  0  0  0
  4 11  2  0  0  0
  6 10  2  0  0  0
  7 12  2  0  0  0
  8  9  2  0  0  0
 13 20  2  0  0  0
M  END
> <rmsd>
0.286810905

$$$$
ZINC92124363


 22 23  0  0  0  0  0  0  0  0999 V2000
    6.4404   -2.9741    2.2948 C   0  0  0  0  0
   -1.5106    0.2753    3.1839 C   0  0  0  0  0
   -0.7456   -0.4022    2.2346 C   0  0  0  0  0
    5.2453   -3.6722    2.1217 C   0  0  0  0  0
    6.5775   -1.6867    1.7759 C   0  0  0  0  0
   -0.7568    2.3870    2.2844 C   0  0  0  0  0
    4.3244   -1.7955    0.9105 C   0  0  0  0  0
   -1.5163    1.6700    3.2088 C   0  0  0  0  0
    0.0139    0.3148    1.3102 C   0  0  0  0  0
    0.0083    1.7095    1.3350 C   0  0  0  0  0
    4.1873   -3.0830    1.4296 C   0  0  0  0  0
    5.5196   -1.0973    1.0838 C   0  0  0  0  0
    3.2185   -1.1793    0.1863 C   0  0  0  0  0
   -2.3344    2.3938    4.2240 C   0  0  0  0  0
    2.1375    2.8247    0.7166 C   0  0  0  0  0
    0.2042    2.8362   -0.8678 C   0  0  0  0  0
    0.8294   -0.4403    0.3008 C   0  0  0  0  0
    2.0204   -1.0124    0.8865 N   0  0  0  0  0
    0.7723    2.4517    0.4080 N   0  0  0  0  0
    3.3551   -0.8470   -1.0023 O   0  0  0  0  0
    3.0279   -3.7827    1.2729 O   0  0  0  0  0
    5.6748    0.1620    0.5857 O   0  0  0  0  0
  1  4  1  0  0  0
  2  8  1  0  0  0
  3  9  1  0  0  0
  5 12  1  0  0  0
  6 10  1  0  0  0
  7 11  1  0  0  0
  7 13  1  0  0  0
 10 19  1  0  0  0
 11 21  1  0  0  0
 12 22  1  0  0  0
 13 18  1  0  0  0
 14  8  1  0  0  0
 15 19  1  0  0  0
 16 19  1  0  0  0
 17  9  1  0  0  0
 17 18  1  0  0  0
  1  5  2  0  0  0
  2  3  2  0  0  0
  4 11  2  0  0  0
  6  8  2  0  0  0
  7 12  2  0  0  0
  9 10  2  0  0  0
 13 20  2  0  0  0
M  END
> <rmsd>
0.378600568

$$$$
ZINC92124363


 22 23  0  0  0  0  0  0  0  0999 V2000
    6.3327   -2.9261    2.4308 C   0  0  0  0  0
    1.4446    3.1378    1.3915 C   0  0  0  0  0
    1.4363    1.7464    1.2947 C   0  0  0  0  0
    5.1338   -3.6101    2.2302 C   0  0  0  0  0
    6.5148   -1.6599    1.8746 C   0  0  0  0  0
    0.2815    3.2917   -0.7204 C   0  0  0  0  0
    4.2990   -1.7619    0.9172 C   0  0  0  0  0
    0.8671    3.9105    0.3839 C   0  0  0  0  0
    0.8507    1.1275    0.1904 C   0  0  0  0  0
    0.2732    1.9002   -0.8173 C   0  0  0  0  0
    4.1169   -3.0281    1.4733 C   0  0  0  0  0
    5.4979   -1.0778    1.1179 C   0  0  0  0  0
    3.2361   -1.1532    0.1252 C   0  0  0  0  0
    0.8762    5.3981    0.4879 C   0  0  0  0  0
    0.4647    1.0100   -3.1261 C   0  0  0  0  0
   -1.7247    0.9269   -1.9226 C   0  0  0  0  0
    0.8578   -0.3718    0.1114 C   0  0  0  0  0
    2.0124   -0.9425    0.7671 N   0  0  0  0  0
   -0.3226    1.2908   -1.9431 N   0  0  0  0  0
    3.4290   -0.8649   -1.0670 O   0  0  0  0  0
    2.9530   -3.7138    1.2907 O   0  0  0  0  0
    5.6966    0.1607    0.5843 O   0  0  0  0  0
  1  4  1  0  0  0
  2  8  1  0  0  0
  3  9  1  0  0  0
  5 12  1  0  0  0
  6 10  1  0  0  0
  7 11  1  0  0  0
  7 13  1  0  0  0
 10 19  1  0  0  0
 11 21  1  0  0  0
 12 22  1  0  0  0
 13 18  1  0  0  0
 14  8  1  0  0  0
 15 19  1  0  0  0
 16 19  1  0  0  0
 17  9  1  0  0  0
 17 18  1  0  0  0
  1  5  2  0  0  0
  2  3  2  0  0  0
  4 11  2  0  0  0
  6  8  2  0  0  0
  7 12  2  0  0  0
  9 10  2  0  0  0
 13 20  2  0  0  0
M  END
> <rmsd>
0.286992997

$$$$
ZINC67605750


 22 23  0  0  0  0  0  0  0  0999 V2000
    6.3322   -2.9139    2.4349 C   0  0  0  0  0
    0.8808    3.1391    1.5219 C   0  0  0  0  0
    0.8208    1.7518    1.4511 C   0  0  0  0  0
    5.1372   -3.6044    2.2330 C   0  0  0  0  0
    6.5084   -1.6471    1.8782 C   0  0  0  0  0
    1.0298    3.8431    0.3379 C   0  0  0  0  0
    1.0578    1.9142   -0.9097 C   0  0  0  0  0
    4.2946   -1.7614    0.9175 C   0  0  0  0  0
    0.9104    1.1198    0.2159 C   0  0  0  0  0
    4.1183   -3.0282    1.4743 C   0  0  0  0  0
    5.4896   -1.0709    1.1195 C   0  0  0  0  0
    3.2102   -1.1476    0.1084 C   0  0  0  0  0
   -2.3368   -4.3333    0.2701 C   0  0  0  0  0
   -2.0582   -2.9174    0.7489 C   0  0  0  0  0
   -0.7604   -2.3701    0.1539 C   0  0  0  0  0
   -0.4691   -0.9538    0.6639 C   0  0  0  0  0
    0.8475   -0.3906    0.1039 C   0  0  0  0  0
    1.1202    3.2644   -0.8805 N   0  0  0  0  0
    2.0035   -0.9537    0.7622 N   0  0  0  0  0
    3.4237   -0.8702   -1.0688 O   0  0  0  0  0
    2.9589   -3.7208    1.2892 O   0  0  0  0  0
    5.6829    0.1679    0.5849 O   0  0  0  0  0
  1  4  1  0  0  0
  2  6  1  0  0  0
  3  9  1  0  0  0
  5 11  1  0  0  0
  7 18  1  0  0  0
  8 10  1  0  0  0
  8 12  1  0  0  0
 10 21  1  0  0  0
 11 22  1  0  0  0
 12 19  1  0  0  0
 13 14  1  0  0  0
 14 15  1  0  0  0
 15 16  1  0  0  0
 16 17  1  0  0  0
 17  9  1  0  0  0
 17 19  1  0  0  0
  1  5  2  0  0  0
  2  3  2  0  0  0
  4 10  2  0  0  0
  6 18  2  0  0  0
  7  9  2  0  0  0
  8 11  2  0  0  0
 12 20  2  0  0  0
M  END
> <rmsd>
0.314901769

$$$$
ZINC67605750


 22 23  0  0  0  0  0  0  0  0999 V2000
    6.3220   -2.9046    2.4513 C   0  0  0  0  0
    1.1208    3.2946   -0.8162 C   0  0  0  0  0
    1.0663    1.9113   -0.9452 C   0  0  0  0  0
    5.1282   -3.5962    2.2459 C   0  0  0  0  0
    6.5009   -1.6401    1.8903 C   0  0  0  0  0
    1.0164    3.8319    0.4567 C   0  0  0  0  0
    0.8164    1.7532    1.4145 C   0  0  0  0  0
    4.2922   -1.7589    0.9182 C   0  0  0  0  0
    0.9112    1.1186    0.1866 C   0  0  0  0  0
    4.1133   -3.0233    1.4793 C   0  0  0  0  0
    5.4860   -1.0672    1.1238 C   0  0  0  0  0
    3.2121   -1.1486    0.1008 C   0  0  0  0  0
   -2.3350   -4.3349    0.2459 C   0  0  0  0  0
   -2.0593   -2.9170    0.7203 C   0  0  0  0  0
   -0.7584   -2.3719    0.1300 C   0  0  0  0  0
   -0.4702   -0.9534    0.6358 C   0  0  0  0  0
    0.8493   -0.3922    0.0805 C   0  0  0  0  0
    0.8650    3.0941    1.5795 N   0  0  0  0  0
    2.0019   -0.9524    0.7473 N   0  0  0  0  0
    3.4319   -0.8760   -1.0764 O   0  0  0  0  0
    2.9550   -3.7170    1.2908 O   0  0  0  0  0
    5.6819    0.1694    0.5852 O   0  0  0  0  0
  1  4  1  0  0  0
  2  6  1  0  0  0
  3  9  1  0  0  0
  5 11  1  0  0  0
  7 18  1  0  0  0
  8 10  1  0  0  0
  8 12  1  0  0  0
 10 21  1  0  0  0
 11 22  1  0  0  0
 12 19  1  0  0  0
 13 14  1  0  0  0
 14 15  1  0  0  0
 15 16  1  0  0  0
 16 17  1  0  0  0
 17  9  1  0  0  0
 17 19  1  0  0  0
  1  5  2  0  0  0
  2  3  2  0  0  0
  4 10  2  0  0  0
  6 18  2  0  0  0
  7  9  2  0  0  0
  8 11  2  0  0  0
 12 20  2  0  0  0
M  END
> <rmsd>
0.315399915

$$$$
ZINC92124223


 22 23  0  0  0  0  0  0  0  0999 V2000
    6.4813   -3.2272    2.0539 C   0  0  0  0  0
    2.5251    2.5485    4.2068 C   0  0  0  0  0
    2.3902    2.2993    2.8456 C   0  0  0  0  0
    5.2197   -3.8120    1.9441 C   0  0  0  0  0
    6.6917   -1.9300    1.5860 C   0  0  0  0  0
    1.4893    2.1630    5.0425 C   0  0  0  0  0
    0.2618    1.3343    3.2862 C   0  0  0  0  0
    4.3791   -1.8027    0.8987 C   0  0  0  0  0
    1.2400    1.6811    2.3683 C   0  0  0  0  0
    4.1686   -3.0998    1.3666 C   0  0  0  0  0
    5.6406   -1.2178    1.0084 C   0  0  0  0  0
    3.2598   -1.0441    0.2828 C   0  0  0  0  0
   -0.0365    3.6800    0.4442 C   0  0  0  0  0
   -0.3516    1.8453   -1.2089 C   0  0  0  0  0
    0.9805   -0.1287    0.6323 C   0  0  0  0  0
    1.0617    1.3930    0.8792 C   0  0  0  0  0
   -0.1620    2.1596    0.2836 C   0  0  0  0  0
    0.3570    1.5602    4.6157 N   0  0  0  0  0
    2.1540   -0.8261    1.0932 N   0  0  0  0  0
    3.3556   -0.6757   -0.8849 O   0  0  0  0  0
    2.9437   -3.6903    1.2704 O   0  0  0  0  0
    5.8681    0.0487    0.5586 O   0  0  0  0  0
  1  4  1  0  0  0
  2  6  1  0  0  0
  3  9  1  0  0  0
  5 11  1  0  0  0
  7 18  1  0  0  0
  8 10  1  0  0  0
  8 12  1  0  0  0
 10 21  1  0  0  0
 11 22  1  0  0  0
 12 19  1  0  0  0
 13 17  1  0  0  0
 14 17  1  0  0  0
 15 16  1  0  0  0
 15 19  1  0  0  0
 16  9  1  0  0  0
 16 17  1  0  0  0
  1  5  2  0  0  0
  2  3  2  0  0  0
  4 10  2  0  0  0
  6 18  2  0  0  0
  7  9  2  0  0  0
  8 11  2  0  0  0
 12 20  2  0  0  0
M  END
> <rmsd>
0.449870735

$$$$
ZINC92124223


 22 23  0  0  0  0  0  0  0  0999 V2000
    6.4819   -3.2273    2.0541 C   0  0  0  0  0
    0.4471    1.6079    4.6386 C   0  0  0  0  0
    0.2574    1.3327    3.2888 C   0  0  0  0  0
    5.2203   -3.8122    1.9445 C   0  0  0  0  0
    6.6922   -1.9301    1.5863 C   0  0  0  0  0
    1.6279    2.2278    5.0142 C   0  0  0  0  0
    2.3857    2.2975    2.8464 C   0  0  0  0  0
    4.3795   -1.8028    0.8992 C   0  0  0  0  0
    1.2404    1.6807    2.3692 C   0  0  0  0  0
    4.1692   -3.1000    1.3670 C   0  0  0  0  0
    5.6410   -1.2179    1.0088 C   0  0  0  0  0
    3.2602   -1.0443    0.2835 C   0  0  0  0  0
   -0.0364    3.6797    0.4453 C   0  0  0  0  0
   -0.3515    1.8451   -1.2079 C   0  0  0  0  0
    0.9808   -0.1290    0.6332 C   0  0  0  0  0
    1.0620    1.3927    0.8801 C   0  0  0  0  0
   -0.1618    2.1592    0.2846 C   0  0  0  0  0
    2.6057    2.5809    4.1499 N   0  0  0  0  0
    2.1544   -0.8264    1.0939 N   0  0  0  0  0
    3.3559   -0.6759   -0.8842 O   0  0  0  0  0
    2.9442   -3.6905    1.2709 O   0  0  0  0  0
    5.8684    0.0486    0.5591 O   0  0  0  0  0
  1  4  1  0  0  0
  2  6  1  0  0  0
  3  9  1  0  0  0
  5 11  1  0  0  0
  7 18  1  0  0  0
  8 10  1  0  0  0
  8 12  1  0  0  0
 10 21  1  0  0  0
 11 22  1  0  0  0
 12 19  1  0  0  0
 13 17  1  0  0  0
 14 17  1  0  0  0
 15 16  1  0  0  0
 15 19  1  0  0  0
 16  9  1  0  0  0
 16 17  1  0  0  0
  1  5  2  0  0  0
  2  3  2  0  0  0
  4 10  2  0  0  0
  6 18  2  0  0  0
  7  9  2  0  0  0
  8 11  2  0  0  0
 12 20  2  0  0  0
M  END
> <rmsd>
0.450015485

$$$$
ZINC92123587


 22 24  0  0  0  0  0  0  0  0999 V2000
    6.3153   -2.9485    2.4141 C   0  0  0  0  0
    1.2218    4.5022   -0.9009 C   0  0  0  0  0
    5.1047   -3.6129    2.2186 C   0  0  0  0  0
    6.5140   -1.6835    1.8607 C   0  0  0  0  0
    1.0275    5.6549   -0.1295 C   0  0  0  0  0
    0.4694    4.3284    1.8362 C   0  0  0  0  0
    4.2912   -1.7476    0.9164 C   0  0  0  0  0
    1.0367    3.2492   -0.2926 C   0  0  0  0  0
    0.6685    3.1941    1.0487 C   0  0  0  0  0
    4.0926   -3.0125    1.4697 C   0  0  0  0  0
    5.5019   -1.0830    1.1120 C   0  0  0  0  0
    0.6581    5.5672    1.2146 C   0  0  0  0  0
    0.8776    1.1720    0.1756 C   0  0  0  0  0
    3.2136   -1.1081    0.1182 C   0  0  0  0  0
    0.8671   -0.3021    0.1354 C   0  0  0  0  0
    1.1617    1.9836   -0.8181 N   0  0  0  0  0
    0.5738    1.8534    1.3213 N   0  0  0  0  0
    2.0185   -0.8928    0.7836 N   0  0  0  0  0
    3.4235   -0.8307   -1.0597 O   0  0  0  0  0
    2.9170   -3.6793    1.2921 O   0  0  0  0  0
    5.7169    0.1539    0.5810 O   0  0  0  0  0
    0.4819    6.6912    1.9236 F   0  0  0  0  0
  1  3  1  0  0  0
  2  8  1  0  0  0
  4 11  1  0  0  0
  5 12  1  0  0  0
  6  9  1  0  0  0
  7 10  1  0  0  0
  7 14  1  0  0  0
  8 16  1  0  0  0
  9 17  1  0  0  0
 10 20  1  0  0  0
 11 21  1  0  0  0
 12 22  1  0  0  0
 13 17  1  0  0  0
 14 18  1  0  0  0
 15 13  1  0  0  0
 15 18  1  0  0  0
  1  4  2  0  0  0
  2  5  2  0  0  0
  3 10  2  0  0  0
  6 12  2  0  0  0
  7 11  2  0  0  0
  8  9  2  0  0  0
 13 16  2  0  0  0
 14 19  2  0  0  0
M  END
> <rmsd>
0.259134382

$$$$
ZINC92123587


 22 24  0  0  0  0  0  0  0  0999 V2000
    6.3451   -2.9713    2.3667 C   0  0  0  0  0
    0.5926    4.4276    1.5602 C   0  0  0  0  0
    5.1319   -3.6342    2.1816 C   0  0  0  0  0
    6.5348   -1.6997    1.8256 C   0  0  0  0  0
    0.7923    5.6263    0.8639 C   0  0  0  0  0
    1.3021    4.4261   -1.1939 C   0  0  0  0  0
    4.2980   -1.7540    0.9142 C   0  0  0  0  0
    0.7504    3.2154    0.8673 C   0  0  0  0  0
    1.0981    3.2446   -0.4803 C   0  0  0  0  0
    4.1084   -3.0255    1.4553 C   0  0  0  0  0
    5.5113   -1.0910    1.0994 C   0  0  0  0  0
    1.1406    5.6232   -0.4887 C   0  0  0  0  0
    0.8722    1.1720    0.2599 C   0  0  0  0  0
    3.2082   -1.1058    0.1400 C   0  0  0  0  0
    0.8619   -0.3015    0.2022 C   0  0  0  0  0
    0.6147    1.9195    1.3096 N   0  0  0  0  0
    1.1691    1.9239   -0.8426 N   0  0  0  0  0
    2.0232   -0.8991    0.8259 N   0  0  0  0  0
    3.4002   -0.8141   -1.0375 O   0  0  0  0  0
    2.9306   -3.6909    1.2874 O   0  0  0  0  0
    5.7176    0.1523    0.5801 O   0  0  0  0  0
    1.3227    6.7894   -1.1242 F   0  0  0  0  0
  1  3  1  0  0  0
  2  8  1  0  0  0
  4 11  1  0  0  0
  5 12  1  0  0  0
  6  9  1  0  0  0
  7 10  1  0  0  0
  7 14  1  0  0  0
  8 16  1  0  0  0
  9 17  1  0  0  0
 10 20  1  0  0  0
 11 21  1  0  0  0
 12 22  1  0  0  0
 13 17  1  0  0  0
 14 18  1  0  0  0
 15 13  1  0  0  0
 15 18  1  0  0  0
  1  4  2  0  0  0
  2  5  2  0  0  0
  3 10  2  0  0  0
  6 12  2  0  0  0
  7 11  2  0  0  0
  8  9  2  0  0  0
 13 16  2  0  0  0
 14 19  2  0  0  0
M  END
> <rmsd>
0.264621347

$$$$
ZINC92122734


 22 24  0  0  0  0  0  0  0  0999 V2000
   -0.0409    2.3025    4.2317 C   0  0  0  0  0
    6.3954   -3.0912    2.1753 C   0  0  0  0  0
   -0.1222    1.9127    2.8949 C   0  0  0  0  0
    5.1525   -3.7087    2.0358 C   0  0  0  0  0
    6.5937   -1.8027    1.6791 C   0  0  0  0  0
    1.2042    2.5336    4.8165 C   0  0  0  0  0
    2.2869    1.9847    2.7276 C   0  0  0  0  0
    4.3061   -1.7493    0.9036 C   0  0  0  0  0
    1.0418    1.7537    2.1429 C   0  0  0  0  0
    4.1079   -3.0377    1.3998 C   0  0  0  0  0
    5.5490   -1.1318    1.0432 C   0  0  0  0  0
    2.3681    2.3746    4.0644 C   0  0  0  0  0
    3.2141   -1.0478    0.2382 C   0  0  0  0  0
    0.1897    2.2120   -0.2855 C   0  0  0  0  0
    1.6835    2.1532   -0.3594 C   0  0  0  0  0
    0.9528    1.3273    0.6842 C   0  0  0  0  0
    0.8831   -0.1636    0.4653 C   0  0  0  0  0
    2.0573   -0.8231    0.9899 N   0  0  0  0  0
    3.3249   -0.6963   -0.9476 O   0  0  0  0  0
    2.9011   -3.6596    1.2753 O   0  0  0  0  0
    5.7644    0.1269    0.5666 O   0  0  0  0  0
    3.5637    2.5981    4.6257 F   0  0  0  0  0
  1  3  1  0  0  0
  2  4  1  0  0  0
  5 11  1  0  0  0
  6 12  1  0  0  0
  7  9  1  0  0  0
  8 10  1  0  0  0
  8 13  1  0  0  0
 10 20  1  0  0  0
 11 21  1  0  0  0
 12 22  1  0  0  0
 13 18  1  0  0  0
 14 15  1  0  0  0
 14 16  1  0  0  0
 15 16  1  0  0  0
 16  9  1  0  0  0
 16 17  1  0  0  0
 17 18  1  0  0  0
  1  6  2  0  0  0
  2  5  2  0  0  0
  3  9  2  0  0  0
  4 10  2  0  0  0
  7 12  2  0  0  0
  8 11  2  0  0  0
 13 19  2  0  0  0
M  END
> <rmsd>
0.333428025

$$$$
ZINC92122734


 22 24  0  0  0  0  0  0  0  0999 V2000
    2.3691    2.3761    4.0632 C   0  0  0  0  0
    6.3955   -3.0914    2.1750 C   0  0  0  0  0
    2.2872    1.9847    2.7269 C   0  0  0  0  0
    5.1526   -3.7089    2.0354 C   0  0  0  0  0
    6.5937   -1.8029    1.6789 C   0  0  0  0  0
    1.2056    2.5357    4.8158 C   0  0  0  0  0
   -0.1218    1.9131    2.8957 C   0  0  0  0  0
    4.3062   -1.7494    0.9034 C   0  0  0  0  0
    1.0418    1.7533    2.1431 C   0  0  0  0  0
    4.1080   -3.0380    1.3995 C   0  0  0  0  0
    5.5491   -1.1319    1.0431 C   0  0  0  0  0
   -0.0399    2.3043    4.2320 C   0  0  0  0  0
    3.2141   -1.0479    0.2380 C   0  0  0  0  0
    0.1896    2.2119   -0.2852 C   0  0  0  0  0
    1.6834    2.1531   -0.3591 C   0  0  0  0  0
    0.9527    1.3270    0.6843 C   0  0  0  0  0
    0.8831   -0.1638    0.4653 C   0  0  0  0  0
    2.0574   -0.8233    0.9898 N   0  0  0  0  0
    3.3250   -0.6962   -0.9477 O   0  0  0  0  0
    2.9013   -3.6598    1.2748 O   0  0  0  0  0
    5.7644    0.1268    0.5666 O   0  0  0  0  0
   -1.1569    2.4562    4.9554 F   0  0  0  0  0
  1  3  1  0  0  0
  2  4  1  0  0  0
  5 11  1  0  0  0
  6 12  1  0  0  0
  7  9  1  0  0  0
  8 10  1  0  0  0
  8 13  1  0  0  0
 10 20  1  0  0  0
 11 21  1  0  0  0
 12 22  1  0  0  0
 13 18  1  0  0  0
 14 15  1  0  0  0
 14 16  1  0  0  0
 15 16  1  0  0  0
 16  9  1  0  0  0
 16 17  1  0  0  0
 17 18  1  0  0  0
  1  6  2  0  0  0
  2  5  2  0  0  0
  3  9  2  0  0  0
  4 10  2  0  0  0
  7 12  2  0  0  0
  8 11  2  0  0  0
 13 19  2  0  0  0
M  END
> <rmsd>
0.333187938

$$$$
ZINC92122468


 22 24  0  0  0  0  0  0  0  0999 V2000
   -0.0455    2.3033    4.2294 C   0  0  0  0  0
    1.1982    2.5361    4.8163 C   0  0  0  0  0
    6.3951   -3.0913    2.1754 C   0  0  0  0  0
   -0.1237    1.9122    2.8927 C   0  0  0  0  0
    5.1522   -3.7086    2.0358 C   0  0  0  0  0
    6.5935   -1.8027    1.6795 C   0  0  0  0  0
    2.3638    2.3779    4.0666 C   0  0  0  0  0
    4.3061   -1.7491    0.9038 C   0  0  0  0  0
    1.0418    1.7539    2.1430 C   0  0  0  0  0
    4.1077   -3.0376    1.3999 C   0  0  0  0  0
    5.5490   -1.1317    1.0435 C   0  0  0  0  0
    2.2856    1.9868    2.7300 C   0  0  0  0  0
    3.2142   -1.0476    0.2382 C   0  0  0  0  0
    0.1900    2.2125   -0.2854 C   0  0  0  0  0
    1.6838    2.1537   -0.3591 C   0  0  0  0  0
    0.9529    1.3276    0.6843 C   0  0  0  0  0
    0.8831   -0.1632    0.4653 C   0  0  0  0  0
    2.0572   -0.8228    0.9899 N   0  0  0  0  0
    3.3251   -0.6959   -0.9474 O   0  0  0  0  0
    2.9010   -3.6594    1.2752 O   0  0  0  0  0
    5.7643    0.1270    0.5670 O   0  0  0  0  0
    3.4119    1.8389    2.0183 F   0  0  0  0  0
  1  2  1  0  0  0
  3  5  1  0  0  0
  4  9  1  0  0  0
  6 11  1  0  0  0
  7 12  1  0  0  0
  8 10  1  0  0  0
  8 13  1  0  0  0
 10 20  1  0  0  0
 11 21  1  0  0  0
 12 22  1  0  0  0
 13 18  1  0  0  0
 14 15  1  0  0  0
 14 16  1  0  0  0
 15 16  1  0  0  0
 16  9  1  0  0  0
 16 17  1  0  0  0
 17 18  1  0  0  0
  1  4  2  0  0  0
  2  7  2  0  0  0
  3  6  2  0  0  0
  5 10  2  0  0  0
  8 11  2  0  0  0
  9 12  2  0  0  0
 13 19  2  0  0  0
M  END
> <rmsd>
0.3336716

$$$$
ZINC92122468


 22 24  0  0  0  0  0  0  0  0999 V2000
    2.3742    2.3743    4.0610 C   0  0  0  0  0
    1.2123    2.5337    4.8161 C   0  0  0  0  0
    6.3958   -3.0917    2.1752 C   0  0  0  0  0
    2.2892    1.9842    2.7244 C   0  0  0  0  0
    5.1529   -3.7091    2.0357 C   0  0  0  0  0
    6.5942   -1.8031    1.6792 C   0  0  0  0  0
   -0.0345    2.3029    4.2348 C   0  0  0  0  0
    4.3067   -1.7496    0.9037 C   0  0  0  0  0
    1.0425    1.7535    2.1430 C   0  0  0  0  0
    4.1083   -3.0380    1.3999 C   0  0  0  0  0
    5.5496   -1.1321    1.0433 C   0  0  0  0  0
   -0.1195    1.9128    2.8982 C   0  0  0  0  0
    3.2147   -1.0481    0.2382 C   0  0  0  0  0
    0.1905    2.2120   -0.2853 C   0  0  0  0  0
    1.6842    2.1531   -0.3592 C   0  0  0  0  0
    0.9534    1.3271    0.6843 C   0  0  0  0  0
    0.8837   -0.1638    0.4654 C   0  0  0  0  0
    2.0578   -0.8233    0.9900 N   0  0  0  0  0
    3.3255   -0.6964   -0.9475 O   0  0  0  0  0
    2.9016   -3.6598    1.2752 O   0  0  0  0  0
    5.7649    0.1266    0.5667 O   0  0  0  0  0
   -1.3227    1.6925    2.3499 F   0  0  0  0  0
  1  2  1  0  0  0
  3  5  1  0  0  0
  4  9  1  0  0  0
  6 11  1  0  0  0
  7 12  1  0  0  0
  8 10  1  0  0  0
  8 13  1  0  0  0
 10 20  1  0  0  0
 11 21  1  0  0  0
 12 22  1  0  0  0
 13 18  1  0  0  0
 14 15  1  0  0  0
 14 16  1  0  0  0
 15 16  1  0  0  0
 16  9  1  0  0  0
 16 17  1  0  0  0
 17 18  1  0  0  0
  1  4  2  0  0  0
  2  7  2  0  0  0
  3  6  2  0  0  0
  5 10  2  0  0  0
  8 11  2  0  0  0
  9 12  2  0  0  0
 13 19  2  0  0  0
M  END
> <rmsd>
0.333679408

$$$$
ZINC92122468


 22 24  0  0  0  0  0  0  0  0999 V2000
    3.6343    2.8334    2.4143 C   0  0  0  0  0
    3.5407    3.9013    1.5219 C   0  0  0  0  0
    6.5859   -3.1376    2.0317 C   0  0  0  0  0
    2.6645    1.8309    2.4066 C   0  0  0  0  0
    5.3666   -3.8052    1.9175 C   0  0  0  0  0
    6.7069   -1.8239    1.5787 C   0  0  0  0  0
    2.4771    3.9668    0.6218 C   0  0  0  0  0
    4.3892   -1.8455    0.8970 C   0  0  0  0  0
    1.6009    1.8963    1.5065 C   0  0  0  0  0
    4.2682   -3.1592    1.3501 C   0  0  0  0  0
    5.6086   -1.1779    1.0114 C   0  0  0  0  0
    1.5072    2.9643    0.6141 C   0  0  0  0  0
    3.2411   -1.1700    0.3031 C   0  0  0  0  0
   -0.2585    0.5603    2.7675 C   0  0  0  0  0
   -0.9179    1.2024    1.5872 C   0  0  0  0  0
    0.5437    0.8009    1.5012 C   0  0  0  0  0
    0.8849   -0.4015    0.6566 C   0  0  0  0  0
    2.1074   -1.0261    1.1082 N   0  0  0  0  0
    3.2874   -0.7699   -0.8714 O   0  0  0  0  0
    3.0859   -3.8301    1.2492 O   0  0  0  0  0
    5.7487    0.1062    0.5760 O   0  0  0  0  0
    0.4886    3.0378   -0.2543 F   0  0  0  0  0
  1  2  1  0  0  0
  3  5  1  0  0  0
  4  9  1  0  0  0
  6 11  1  0  0  0
  7 12  1  0  0  0
  8 10  1  0  0  0
  8 13  1  0  0  0
 10 20  1  0  0  0
 11 21  1  0  0  0
 12 22  1  0  0  0
 13 18  1  0  0  0
 14 15  1  0  0  0
 14 16  1  0  0  0
 15 16  1  0  0  0
 16  9  1  0  0  0
 16 17  1  0  0  0
 17 18  1  0  0  0
  1  4  2  0  0  0
  2  7  2  0  0  0
  3  6  2  0  0  0
  5 10  2  0  0  0
  8 11  2  0  0  0
  9 12  2  0  0  0
 13 19  2  0  0  0
M  END
> <rmsd>
0.471592695

$$$$
ZINC92124600


 22 23  0  0  0  0  0  0  0  0999 V2000
    6.3404   -2.9344    2.4181 C   0  0  0  0  0
    1.1830    3.2709   -0.8581 C   0  0  0  0  0
    1.1846    1.8774   -0.9183 C   0  0  0  0  0
    5.1402   -3.6169    2.2201 C   0  0  0  0  0
    6.5212   -1.6666    1.8653 C   0  0  0  0  0
    0.5174    3.1700    1.4622 C   0  0  0  0  0
    4.3016   -1.7640    0.9161 C   0  0  0  0  0
    0.8494    3.9173    0.3321 C   0  0  0  0  0
    0.8526    1.1301    0.2117 C   0  0  0  0  0
    4.1208   -3.0318    1.4690 C   0  0  0  0  0
    5.5018   -1.0815    1.1142 C   0  0  0  0  0
    0.5190    1.7764    1.4020 C   0  0  0  0  0
    3.2361   -1.1522    0.1302 C   0  0  0  0  0
    0.8484    5.4073    0.3962 C   0  0  0  0  0
    0.4820    0.3877    4.7944 C   0  0  0  0  0
    0.8583   -0.3690    0.1280 C   0  0  0  0  0
    1.0107    1.2507    3.6687 C   0  0  0  0  0
    2.0151   -0.9425    0.7775 N   0  0  0  0  0
    3.4246   -0.8603   -1.0619 O   0  0  0  0  0
    2.9556   -3.7162    1.2889 O   0  0  0  0  0
    5.6993    0.1585    0.5837 O   0  0  0  0  0
    0.1934    1.0616    2.5153 O   0  0  0  0  0
  1  4  1  0  0  0
  2  8  1  0  0  0
  3  9  1  0  0  0
  5 11  1  0  0  0
  6 12  1  0  0  0
  7 10  1  0  0  0
  7 13  1  0  0  0
 10 20  1  0  0  0
 11 21  1  0  0  0
 12 22  1  0  0  0
 13 18  1  0  0  0
 14  8  1  0  0  0
 15 17  1  0  0  0
 16  9  1  0  0  0
 16 18  1  0  0  0
 17 22  1  0  0  0
  1  5  2  0  0  0
  2  3  2  0  0  0
  4 10  2  0  0  0
  6  8  2  0  0  0
  7 11  2  0  0  0
  9 12  2  0  0  0
 13 19  2  0  0  0
M  END
> <rmsd>
0.284528881

$$$$
ZINC92120764


 22 23  0  0  0  0  0  0  0  0999 V2000
    0.0873    1.7588    4.3539 C   0  0  0  0  0
    1.2030    2.3932    4.9001 C   0  0  0  0  0
    6.3949   -3.1790    2.1657 C   0  0  0  0  0
    0.0522    1.4595    2.9919 C   0  0  0  0  0
    2.2836    2.7285    4.0843 C   0  0  0  0  0
    5.1306   -3.7530    2.0327 C   0  0  0  0  0
    6.6353   -1.8981    1.6683 C   0  0  0  0  0
    4.3470   -1.7654    0.9046 C   0  0  0  0  0
    1.1328    1.7949    2.1762 C   0  0  0  0  0
    4.1067   -3.0462    1.4022 C   0  0  0  0  0
    5.6113   -1.1913    1.0378 C   0  0  0  0  0
    2.2485    2.4293    2.7223 C   0  0  0  0  0
    3.2567   -1.0127    0.2324 C   0  0  0  0  0
   -0.0624    2.2257    0.0059 C   0  0  0  0  0
    4.4103    3.4103    2.5800 C   0  0  0  0  0
    0.9781   -0.0634    0.4831 C   0  0  0  0  0
    1.0766    1.4611    0.6928 C   0  0  0  0  0
    2.1438   -0.7691    1.0074 N   0  0  0  0  0
    3.3935   -0.6789   -0.9417 O   0  0  0  0  0
    2.8785   -3.6259    1.2838 O   0  0  0  0  0
    5.8677    0.0591    0.5597 O   0  0  0  0  0
    3.3120    2.7644    1.9393 O   0  0  0  0  0
  1  2  1  0  0  0
  3  6  1  0  0  0
  4  9  1  0  0  0
  5 12  1  0  0  0
  7 11  1  0  0  0
  8 10  1  0  0  0
  8 13  1  0  0  0
 10 20  1  0  0  0
 11 21  1  0  0  0
 12 22  1  0  0  0
 13 18  1  0  0  0
 14 17  1  0  0  0
 15 22  1  0  0  0
 16 17  1  0  0  0
 16 18  1  0  0  0
 17  9  1  0  0  0
  1  4  2  0  0  0
  2  5  2  0  0  0
  3  7  2  0  0  0
  6 10  2  0  0  0
  8 11  2  0  0  0
  9 12  2  0  0  0
 13 19  2  0  0  0
M  END
> <rmsd>
0.360921413

$$$$
ZINC92119681


 22 23  0  0  0  0  0  0  0  0999 V2000
    1.1840    3.2707   -0.8583 C   0  0  0  0  0
    0.8517    3.9170    0.3323 C   0  0  0  0  0
    6.3401   -2.9338    2.4187 C   0  0  0  0  0
    1.1842    1.8771   -0.9188 C   0  0  0  0  0
    0.5198    3.1698    1.4624 C   0  0  0  0  0
    5.1400   -3.6166    2.2207 C   0  0  0  0  0
    6.5209   -1.6661    1.8658 C   0  0  0  0  0
    4.3014   -1.7638    0.9163 C   0  0  0  0  0
    0.8521    1.1298    0.2112 C   0  0  0  0  0
    4.1206   -3.0315    1.4695 C   0  0  0  0  0
    5.5015   -1.0811    1.1144 C   0  0  0  0  0
    0.5200    1.7762    1.4019 C   0  0  0  0  0
    3.2359   -1.1522    0.1303 C   0  0  0  0  0
   -1.8845   -0.0301    3.0284 C   0  0  0  0  0
   -0.9657    1.8128    4.4813 C   0  0  0  0  0
    0.8580   -0.3692    0.1278 C   0  0  0  0  0
   -1.1042    1.2750    3.0652 C   0  0  0  0  0
    2.0148   -0.9426    0.7774 N   0  0  0  0  0
    3.4244   -0.8604   -1.0619 O   0  0  0  0  0
    2.9556   -3.7160    1.2893 O   0  0  0  0  0
    5.6990    0.1587    0.5838 O   0  0  0  0  0
    0.1941    1.0613    2.5150 O   0  0  0  0  0
  1  2  1  0  0  0
  3  6  1  0  0  0
  4  9  1  0  0  0
  5 12  1  0  0  0
  7 11  1  0  0  0
  8 10  1  0  0  0
  8 13  1  0  0  0
 10 20  1  0  0  0
 11 21  1  0  0  0
 12 22  1  0  0  0
 13 18  1  0  0  0
 14 17  1  0  0  0
 15 17  1  0  0  0
 16  9  1  0  0  0
 16 18  1  0  0  0
 17 22  1  0  0  0
  1  4  2  0  0  0
  2  5  2  0  0  0
  3  7  2  0  0  0
  6 10  2  0  0  0
  8 11  2  0  0  0
  9 12  2  0  0  0
 13 19  2  0  0  0
M  END
> <rmsd>
0.284911782

$$$$
ZINC92123261


 22 23  0  0  0  0  0  0  0  0999 V2000
    6.3685   -3.1539    2.2161 C   0  0  0  0  0
    3.8654    4.1815    2.4678 C   0  0  0  0  0
    4.3205    2.2767    3.8826 C   0  0  0  0  0
    5.1062   -3.7296    2.0718 C   0  0  0  0  0
    6.6161   -1.8793    1.7062 C   0  0  0  0  0
    2.7028    3.5627    2.0085 C   0  0  0  0  0
    3.1578    1.6579    3.4234 C   0  0  0  0  0
    4.3391   -1.7564    0.9077 C   0  0  0  0  0
    4.6743    3.5385    3.4048 C   0  0  0  0  0
    2.3489    2.3009    2.4864 C   0  0  0  0  0
    4.0916   -3.0310    1.4176 C   0  0  0  0  0
    5.6015   -1.1806    1.0520 C   0  0  0  0  0
    3.2588   -1.0124    0.2104 C   0  0  0  0  0
    5.9170    4.2003    3.8964 C   0  0  0  0  0
   -0.0665    2.2035    0.0721 C   0  0  0  0  0
    0.9771   -0.0598    0.4163 C   0  0  0  0  0
    1.1271    1.4436    0.6350 C   0  0  0  0  0
    2.1233   -0.7521    0.9607 N   0  0  0  0  0
    3.4126   -0.6933   -0.9656 O   0  0  0  0  0
    2.8653   -3.6122    1.2887 O   0  0  0  0  0
    5.8648    0.0638    0.5622 O   0  0  0  0  0
    1.2077    1.6945    2.0367 O   0  0  0  0  0
  1  4  1  0  0  0
  2  9  1  0  0  0
  3  7  1  0  0  0
  5 12  1  0  0  0
  6 10  1  0  0  0
  8 11  1  0  0  0
  8 13  1  0  0  0
 10 22  1  0  0  0
 11 20  1  0  0  0
 12 21  1  0  0  0
 13 18  1  0  0  0
 14  9  1  0  0  0
 15 17  1  0  0  0
 16 17  1  0  0  0
 16 18  1  0  0  0
 17 22  1  0  0  0
  1  5  2  0  0  0
  2  6  2  0  0  0
  3  9  2  0  0  0
  4 11  2  0  0  0
  7 10  2  0  0  0
  8 12  2  0  0  0
 13 19  2  0  0  0
M  END
> <rmsd>
0.355653346

$$$$
ZINC92123261


 22 23  0  0  0  0  0  0  0  0999 V2000
    6.3684   -3.1536    2.2160 C   0  0  0  0  0
    4.0458    3.9690    2.4929 C   0  0  0  0  0
    2.0851    4.9239    3.5328 C   0  0  0  0  0
    5.1061   -3.7293    2.0718 C   0  0  0  0  0
    6.6161   -1.8790    1.7061 C   0  0  0  0  0
    3.2970    2.8598    2.0999 C   0  0  0  0  0
    1.3363    3.8147    3.1396 C   0  0  0  0  0
    4.3391   -1.7561    0.9075 C   0  0  0  0  0
    3.4399    5.0011    3.2094 C   0  0  0  0  0
    1.9424    2.7826    2.4232 C   0  0  0  0  0
    4.0916   -3.0306    1.4175 C   0  0  0  0  0
    5.6015   -1.1803    1.0518 C   0  0  0  0  0
    3.2588   -1.0121    0.2102 C   0  0  0  0  0
    4.2400    6.1874    3.6292 C   0  0  0  0  0
   -0.0665    2.2038    0.0717 C   0  0  0  0  0
    0.9771   -0.0595    0.4160 C   0  0  0  0  0
    1.1271    1.4439    0.6346 C   0  0  0  0  0
    2.1233   -0.7517    0.9605 N   0  0  0  0  0
    3.4126   -0.6931   -0.9658 O   0  0  0  0  0
    2.8653   -3.6118    1.2887 O   0  0  0  0  0
    5.8648    0.0641    0.5619 O   0  0  0  0  0
    1.2078    1.6950    2.0363 O   0  0  0  0  0
  1  4  1  0  0  0
  2  9  1  0  0  0
  3  7  1  0  0  0
  5 12  1  0  0  0
  6 10  1  0  0  0
  8 11  1  0  0  0
  8 13  1  0  0  0
 10 22  1  0  0  0
 11 20  1  0  0  0
 12 21  1  0  0  0
 13 18  1  0  0  0
 14  9  1  0  0  0
 15 17  1  0  0  0
 16 17  1  0  0  0
 16 18  1  0  0  0
 17 22  1  0  0  0
  1  5  2  0  0  0
  2  6  2  0  0  0
  3  9  2  0  0  0
  4 11  2  0  0  0
  7 10  2  0  0  0
  8 12  2  0  0  0
 13 19  2  0  0  0
M  END
> <rmsd>
0.355717778

$$$$
ZINC92123245


 22 23  0  0  0  0  0  0  0  0999 V2000
    3.4693    4.9859    3.1945 C   0  0  0  0  0
    4.0596    3.9454    2.4772 C   0  0  0  0  0
    6.3688   -3.1540    2.2157 C   0  0  0  0  0
    2.1158    4.9246    3.5261 C   0  0  0  0  0
    3.2963    2.8435    2.0914 C   0  0  0  0  0
    5.1065   -3.7298    2.0715 C   0  0  0  0  0
    6.6164   -1.8795    1.7058 C   0  0  0  0  0
    4.3395   -1.7566    0.9073 C   0  0  0  0  0
    1.3525    3.8226    3.1402 C   0  0  0  0  0
    4.0919   -3.0311    1.4172 C   0  0  0  0  0
    5.6018   -1.1808    1.0515 C   0  0  0  0  0
    1.9428    2.7821    2.4229 C   0  0  0  0  0
    3.2592   -1.0126    0.2099 C   0  0  0  0  0
   -0.0947    3.7741    3.5035 C   0  0  0  0  0
   -0.0661    2.2034    0.0714 C   0  0  0  0  0
    0.9775   -0.0600    0.4157 C   0  0  0  0  0
    1.1275    1.4434    0.6343 C   0  0  0  0  0
    2.1237   -0.7522    0.9602 N   0  0  0  0  0
    3.4130   -0.6936   -0.9661 O   0  0  0  0  0
    2.8657   -3.6123    1.2884 O   0  0  0  0  0
    5.8652    0.0636    0.5617 O   0  0  0  0  0
    1.2082    1.6945    2.0361 O   0  0  0  0  0
  1  2  1  0  0  0
  3  6  1  0  0  0
  4  9  1  0  0  0
  5 12  1  0  0  0
  7 11  1  0  0  0
  8 10  1  0  0  0
  8 13  1  0  0  0
 10 20  1  0  0  0
 11 21  1  0  0  0
 12 22  1  0  0  0
 13 18  1  0  0  0
 14  9  1  0  0  0
 15 17  1  0  0  0
 16 17  1  0  0  0
 16 18  1  0  0  0
 17 22  1  0  0  0
  1  4  2  0  0  0
  2  5  2  0  0  0
  3  7  2  0  0  0
  6 10  2  0  0  0
  8 11  2  0  0  0
  9 12  2  0  0  0
 13 19  2  0  0  0
M  END
> <rmsd>
0.355717748

$$$$
ZINC92123245


 22 23  0  0  0  0  0  0  0  0999 V2000
    3.8765    1.5224    4.9307 C   0  0  0  0  0
    3.9180    2.4246    3.8678 C   0  0  0  0  0
    6.4307   -3.1872    2.1036 C   0  0  0  0  0
    2.7868    0.6636    5.0744 C   0  0  0  0  0
    2.8697    2.4682    2.9487 C   0  0  0  0  0
    5.1697   -3.7709    1.9832 C   0  0  0  0  0
    6.6504   -1.8962    1.6230 C   0  0  0  0  0
    4.3481   -1.7731    0.9013 C   0  0  0  0  0
    1.7385    0.7072    4.1554 C   0  0  0  0  0
    4.1284   -3.0640    1.3820 C   0  0  0  0  0
    5.6091   -1.1892    1.0217 C   0  0  0  0  0
    1.7799    1.6095    3.0925 C   0  0  0  0  0
    3.2392   -1.0202    0.2603 C   0  0  0  0  0
    0.5800   -0.2191    4.3252 C   0  0  0  0  0
    0.1717    2.2058   -0.0769 C   0  0  0  0  0
    0.9569   -0.0964    0.5661 C   0  0  0  0  0
    1.1004    1.4016    0.8229 C   0  0  0  0  0
    2.1262   -0.7925    1.0536 N   0  0  0  0  0
    3.3523   -0.6664   -0.9103 O   0  0  0  0  0
    2.9038   -3.6534    1.2757 O   0  0  0  0  0
    5.8454    0.0711    0.5597 O   0  0  0  0  0
    0.7595    1.6657    2.1825 O   0  0  0  0  0
  1  2  1  0  0  0
  3  6  1  0  0  0
  4  9  1  0  0  0
  5 12  1  0  0  0
  7 11  1  0  0  0
  8 10  1  0  0  0
  8 13  1  0  0  0
 10 20  1  0  0  0
 11 21  1  0  0  0
 12 22  1  0  0  0
 13 18  1  0  0  0
 14  9  1  0  0  0
 15 17  1  0  0  0
 16 17  1  0  0  0
 16 18  1  0  0  0
 17 22  1  0  0  0
  1  4  2  0  0  0
  2  5  2  0  0  0
  3  7  2  0  0  0
  6 10  2  0  0  0
  8 11  2  0  0  0
  9 12  2  0  0  0
 13 19  2  0  0  0
M  END
> <rmsd>
0.305140764

$$$$
ZINC92123151


 22 23  0  0  0  0  0  0  0  0999 V2000
    3.8663    4.1811    2.4669 C   0  0  0  0  0
    6.3685   -3.1540    2.2162 C   0  0  0  0  0
    4.6752    3.5379    3.4036 C   0  0  0  0  0
    2.7032    3.5627    2.0081 C   0  0  0  0  0
    5.1062   -3.7297    2.0720 C   0  0  0  0  0
    6.6162   -1.8794    1.7063 C   0  0  0  0  0
    3.1581    1.6577    3.4226 C   0  0  0  0  0
    4.3393   -1.7565    0.9077 C   0  0  0  0  0
    4.3212    2.2762    3.8814 C   0  0  0  0  0
    2.3491    2.3010    2.4859 C   0  0  0  0  0
    4.0917   -3.0310    1.4177 C   0  0  0  0  0
    5.6016   -1.1807    1.0520 C   0  0  0  0  0
    3.2590   -1.0125    0.2102 C   0  0  0  0  0
    5.1865    1.5884    4.8826 C   0  0  0  0  0
   -0.0662    2.2035    0.0716 C   0  0  0  0  0
    0.9773   -0.0598    0.4159 C   0  0  0  0  0
    1.1274    1.4436    0.6345 C   0  0  0  0  0
    2.1235   -0.7521    0.9605 N   0  0  0  0  0
    3.4129   -0.6935   -0.9658 O   0  0  0  0  0
    2.8654   -3.6122    1.2888 O   0  0  0  0  0
    5.8650    0.0636    0.5621 O   0  0  0  0  0
    1.2079    1.6947    2.0363 O   0  0  0  0  0
  1  4  1  0  0  0
  2  5  1  0  0  0
  3  9  1  0  0  0
  6 12  1  0  0  0
  7 10  1  0  0  0
  8 11  1  0  0  0
  8 13  1  0  0  0
 10 22  1  0  0  0
 11 20  1  0  0  0
 12 21  1  0  0  0
 13 18  1  0  0  0
 14  9  1  0  0  0
 15 17  1  0  0  0
 16 17  1  0  0  0
 16 18  1  0  0  0
 17 22  1  0  0  0
  1  3  2  0  0  0
  2  6  2  0  0  0
  4 10  2  0  0  0
  5 11  2  0  0  0
  7  9  2  0  0  0
  8 12  2  0  0  0
 13 19  2  0  0  0
M  END
> <rmsd>
0.35550794

$$$$
ZINC92123151


 22 23  0  0  0  0  0  0  0  0999 V2000
    4.3223    2.2751    3.8797 C   0  0  0  0  0
    6.3687   -3.1539    2.2156 C   0  0  0  0  0
    4.6769    3.5365    3.4015 C   0  0  0  0  0
    3.1586    1.6573    3.4218 C   0  0  0  0  0
    5.1064   -3.7296    2.0714 C   0  0  0  0  0
    6.6163   -1.8793    1.7057 C   0  0  0  0  0
    2.7037    3.5624    2.0074 C   0  0  0  0  0
    4.3394   -1.7564    0.9072 C   0  0  0  0  0
    3.8676    4.1802    2.4653 C   0  0  0  0  0
    2.3492    2.3010    2.4856 C   0  0  0  0  0
    4.0918   -3.0310    1.4172 C   0  0  0  0  0
    5.6017   -1.1806    1.0515 C   0  0  0  0  0
    3.2591   -1.0124    0.2098 C   0  0  0  0  0
    4.2465    5.5291    1.9545 C   0  0  0  0  0
   -0.0662    2.2035    0.0714 C   0  0  0  0  0
    0.9774   -0.0598    0.4157 C   0  0  0  0  0
    1.1274    1.4436    0.6343 C   0  0  0  0  0
    2.1236   -0.7520    0.9602 N   0  0  0  0  0
    3.4129   -0.6934   -0.9662 O   0  0  0  0  0
    2.8656   -3.6121    1.2883 O   0  0  0  0  0
    5.8651    0.0638    0.5616 O   0  0  0  0  0
    1.2081    1.6947    2.0360 O   0  0  0  0  0
  1  4  1  0  0  0
  2  5  1  0  0  0
  3  9  1  0  0  0
  6 12  1  0  0  0
  7 10  1  0  0  0
  8 11  1  0  0  0
  8 13  1  0  0  0
 10 22  1  0  0  0
 11 20  1  0  0  0
 12 21  1  0  0  0
 13 18  1  0  0  0
 14  9  1  0  0  0
 15 17  1  0  0  0
 16 17  1  0  0  0
 16 18  1  0  0  0
 17 22  1  0  0  0
  1  3  2  0  0  0
  2  6  2  0  0  0
  4 10  2  0  0  0
  5 11  2  0  0  0
  7  9  2  0  0  0
  8 12  2  0  0  0
 13 19  2  0  0  0
M  END
> <rmsd>
0.355717719

$$$$
ZINC92123151


 22 23  0  0  0  0  0  0  0  0999 V2000
    2.7634    0.6421    5.0763 C   0  0  0  0  0
    6.4309   -3.1876    2.1035 C   0  0  0  0  0
    3.8609    1.4930    4.9472 C   0  0  0  0  0
    1.7229    0.6999    4.1490 C   0  0  0  0  0
    5.1699   -3.7714    1.9830 C   0  0  0  0  0
    6.6506   -1.8967    1.6229 C   0  0  0  0  0
    2.8776    2.4600    2.9633 C   0  0  0  0  0
    4.3483   -1.7735    0.9012 C   0  0  0  0  0
    3.9180    2.4020    3.8906 C   0  0  0  0  0
    1.7800    1.6089    3.0926 C   0  0  0  0  0
    4.1286   -3.0645    1.3819 C   0  0  0  0  0
    5.6093   -1.1896    1.0217 C   0  0  0  0  0
    3.2394   -1.0206    0.2603 C   0  0  0  0  0
    5.0913    3.3122    3.7529 C   0  0  0  0  0
    0.1718    2.2054   -0.0767 C   0  0  0  0  0
    0.9570   -0.0969    0.5661 C   0  0  0  0  0
    1.1006    1.4011    0.8231 C   0  0  0  0  0
    2.1263   -0.7930    1.0536 N   0  0  0  0  0
    3.3525   -0.6667   -0.9103 O   0  0  0  0  0
    2.9040   -3.6538    1.2755 O   0  0  0  0  0
    5.8456    0.0707    0.5597 O   0  0  0  0  0
    0.7597    1.6652    2.1827 O   0  0  0  0  0
  1  4  1  0  0  0
  2  5  1  0  0  0
  3  9  1  0  0  0
  6 12  1  0  0  0
  7 10  1  0  0  0
  8 11  1  0  0  0
  8 13  1  0  0  0
 10 22  1  0  0  0
 11 20  1  0  0  0
 12 21  1  0  0  0
 13 18  1  0  0  0
 14  9  1  0  0  0
 15 17  1  0  0  0
 16 17  1  0  0  0
 16 18  1  0  0  0
 17 22  1  0  0  0
  1  3  2  0  0  0
  2  6  2  0  0  0
  4 10  2  0  0  0
  5 11  2  0  0  0
  7  9  2  0  0  0
  8 12  2  0  0  0
 13 19  2  0  0  0
M  END
> <rmsd>
0.305038869

$$$$
ZINC92123151


 22 23  0  0  0  0  0  0  0  0999 V2000
    2.0856    4.9221    3.5354 C   0  0  0  0  0
    6.3687   -3.1539    2.2157 C   0  0  0  0  0
    3.4405    4.9993    3.2128 C   0  0  0  0  0
    1.3367    3.8136    3.1405 C   0  0  0  0  0
    5.1064   -3.7296    2.0715 C   0  0  0  0  0
    6.6163   -1.8793    1.7058 C   0  0  0  0  0
    3.2975    2.8594    2.1002 C   0  0  0  0  0
    4.3394   -1.7564    0.9073 C   0  0  0  0  0
    4.0464    3.9679    2.4953 C   0  0  0  0  0
    1.9426    2.7822    2.4229 C   0  0  0  0  0
    4.0918   -3.0310    1.4173 C   0  0  0  0  0
    5.6017   -1.1807    1.0516 C   0  0  0  0  0
    3.2591   -1.0125    0.2099 C   0  0  0  0  0
    5.4949    4.0507    2.1501 C   0  0  0  0  0
   -0.0662    2.2035    0.0715 C   0  0  0  0  0
    0.9773   -0.0598    0.4158 C   0  0  0  0  0
    1.1274    1.4436    0.6343 C   0  0  0  0  0
    2.1236   -0.7521    0.9603 N   0  0  0  0  0
    3.4129   -0.6934   -0.9661 O   0  0  0  0  0
    2.8655   -3.6122    1.2884 O   0  0  0  0  0
    5.8651    0.0637    0.5617 O   0  0  0  0  0
    1.2080    1.6946    2.0361 O   0  0  0  0  0
  1  4  1  0  0  0
  2  5  1  0  0  0
  3  9  1  0  0  0
  6 12  1  0  0  0
  7 10  1  0  0  0
  8 11  1  0  0  0
  8 13  1  0  0  0
 10 22  1  0  0  0
 11 20  1  0  0  0
 12 21  1  0  0  0
 13 18  1  0  0  0
 14  9  1  0  0  0
 15 17  1  0  0  0
 16 17  1  0  0  0
 16 18  1  0  0  0
 17 22  1  0  0  0
  1  3  2  0  0  0
  2  6  2  0  0  0
  4 10  2  0  0  0
  5 11  2  0  0  0
  7  9  2  0  0  0
  8 12  2  0  0  0
 13 19  2  0  0  0
M  END
> <rmsd>
0.355717719

$$$$
ZINC92123151


 22 23  0  0  0  0  0  0  0  0999 V2000
    4.0460    3.9685    2.4932 C   0  0  0  0  0
    6.3684   -3.1542    2.2162 C   0  0  0  0  0
    3.4401    5.0003    3.2100 C   0  0  0  0  0
    3.2972    2.8594    2.0994 C   0  0  0  0  0
    5.1061   -3.7299    2.0719 C   0  0  0  0  0
    6.6161   -1.8796    1.7062 C   0  0  0  0  0
    1.3367    3.8140    3.1395 C   0  0  0  0  0
    4.3392   -1.7567    0.9075 C   0  0  0  0  0
    2.0855    4.9231    3.5332 C   0  0  0  0  0
    1.9426    2.7822    2.4227 C   0  0  0  0  0
    4.0915   -3.0312    1.4176 C   0  0  0  0  0
    5.6015   -1.1810    1.0518 C   0  0  0  0  0
    3.2589   -1.0127    0.2100 C   0  0  0  0  0
    1.4379    6.0262    4.3001 C   0  0  0  0  0
   -0.0662    2.2034    0.0712 C   0  0  0  0  0
    0.9772   -0.0600    0.4157 C   0  0  0  0  0
    1.1274    1.4434    0.6341 C   0  0  0  0  0
    2.1234   -0.7522    0.9603 N   0  0  0  0  0
    3.4128   -0.6938   -0.9660 O   0  0  0  0  0
    2.8652   -3.6124    1.2887 O   0  0  0  0  0
    5.8650    0.0634    0.5619 O   0  0  0  0  0
    1.2079    1.6946    2.0359 O   0  0  0  0  0
  1  4  1  0  0  0
  2  5  1  0  0  0
  3  9  1  0  0  0
  6 12  1  0  0  0
  7 10  1  0  0  0
  8 11  1  0  0  0
  8 13  1  0  0  0
 10 22  1  0  0  0
 11 20  1  0  0  0
 12 21  1  0  0  0
 13 18  1  0  0  0
 14  9  1  0  0  0
 15 17  1  0  0  0
 16 17  1  0  0  0
 16 18  1  0  0  0
 17 22  1  0  0  0
  1  3  2  0  0  0
  2  6  2  0  0  0
  4 10  2  0  0  0
  5 11  2  0  0  0
  7  9  2  0  0  0
  8 12  2  0  0  0
 13 19  2  0  0  0
M  END
> <rmsd>
0.355572522

$$$$
ZINC92106247


 22 23  0  0  0  0  0  0  0  0999 V2000
    6.3339   -2.9251    2.4307 C   0  0  0  0  0
    0.9695    1.9036   -0.9561 C   0  0  0  0  0
    0.7605    1.7577    1.4464 C   0  0  0  0  0
    5.1358   -3.6104    2.2299 C   0  0  0  0  0
    6.5148   -1.6587    1.8748 C   0  0  0  0  0
    0.9751    3.2958   -0.8712 C   0  0  0  0  0
    0.7661    3.1499    1.5314 C   0  0  0  0  0
    4.2993   -1.7628    0.9168 C   0  0  0  0  0
    0.8622    1.1345    0.2027 C   0  0  0  0  0
    0.8734    3.9191    0.3726 C   0  0  0  0  0
    4.1184   -3.0292    1.4730 C   0  0  0  0  0
    5.4975   -1.0775    1.1178 C   0  0  0  0  0
    3.2359   -1.1553    0.1248 C   0  0  0  0  0
    2.1203    7.2844    0.0441 C   0  0  0  0  0
   -0.4298   -0.9904    0.6586 C   0  0  0  0  0
    1.6119    5.9854   -0.5442 C   0  0  0  0  0
    0.8568   -0.3762    0.1106 C   0  0  0  0  0
    2.0119   -0.9457    0.7665 N   0  0  0  0  0
    3.4287   -0.8666   -1.0674 O   0  0  0  0  0
    2.9553   -3.7162    1.2902 O   0  0  0  0  0
    5.6950    0.1611    0.5843 O   0  0  0  0  0
    0.8801    5.2776    0.4554 O   0  0  0  0  0
  1  4  1  0  0  0
  2  9  1  0  0  0
  3  7  1  0  0  0
  5 12  1  0  0  0
  6 10  1  0  0  0
  8 11  1  0  0  0
  8 13  1  0  0  0
 10 22  1  0  0  0
 11 20  1  0  0  0
 12 21  1  0  0  0
 13 18  1  0  0  0
 14 16  1  0  0  0
 15 17  1  0  0  0
 16 22  1  0  0  0
 17  9  1  0  0  0
 17 18  1  0  0  0
  1  5  2  0  0  0
  2  6  2  0  0  0
  3  9  2  0  0  0
  4 11  2  0  0  0
  7 10  2  0  0  0
  8 12  2  0  0  0
 13 19  2  0  0  0
M  END
> <rmsd>
0.291011482

$$$$
ZINC92106247


 22 23  0  0  0  0  0  0  0  0999 V2000
    6.3337   -2.9253    2.4304 C   0  0  0  0  0
   -0.1250    1.8769   -0.4458 C   0  0  0  0  0
    1.8551    1.7851    0.9355 C   0  0  0  0  0
    5.1355   -3.6105    2.2296 C   0  0  0  0  0
    6.5147   -1.6589    1.8745 C   0  0  0  0  0
   -0.1193    3.2692   -0.3613 C   0  0  0  0  0
    1.8606    3.1774    1.0200 C   0  0  0  0  0
    4.2991   -1.7628    0.9166 C   0  0  0  0  0
    0.8622    1.1349    0.2027 C   0  0  0  0  0
    0.8734    3.9194    0.3716 C   0  0  0  0  0
    4.1182   -3.0292    1.4728 C   0  0  0  0  0
    5.4974   -1.0776    1.1176 C   0  0  0  0  0
    3.2358   -1.1551    0.1247 C   0  0  0  0  0
    0.7343    7.1798    1.9009 C   0  0  0  0  0
   -0.4299   -0.9899    0.6586 C   0  0  0  0  0
    1.4194    5.8552    1.6407 C   0  0  0  0  0
    0.8567   -0.3758    0.1106 C   0  0  0  0  0
    2.0118   -0.9455    0.7664 N   0  0  0  0  0
    3.4285   -0.8664   -1.0675 O   0  0  0  0  0
    2.9549   -3.7160    1.2899 O   0  0  0  0  0
    5.6950    0.1610    0.5841 O   0  0  0  0  0
    0.8794    5.2781    0.4528 O   0  0  0  0  0
  1  4  1  0  0  0
  2  9  1  0  0  0
  3  7  1  0  0  0
  5 12  1  0  0  0
  6 10  1  0  0  0
  8 11  1  0  0  0
  8 13  1  0  0  0
 10 22  1  0  0  0
 11 20  1  0  0  0
 12 21  1  0  0  0
 13 18  1  0  0  0
 14 16  1  0  0  0
 15 17  1  0  0  0
 16 22  1  0  0  0
 17  9  1  0  0  0
 17 18  1  0  0  0
  1  5  2  0  0  0
  2  6  2  0  0  0
  3  9  2  0  0  0
  4 11  2  0  0  0
  7 10  2  0  0  0
  8 12  2  0  0  0
 13 19  2  0  0  0
M  END
> <rmsd>
0.290901393

$$$$
ZINC92125522


 22 24  0  0  0  0  0  0  0  0999 V2000
    6.3389   -2.9680    2.3752 C   0  0  0  0  0
    5.1258   -3.6308    2.1882 C   0  0  0  0  0
    6.5306   -1.6976    1.8319 C   0  0  0  0  0
    0.5980    1.9921    1.3518 C   0  0  0  0  0
    0.7416    3.2726    0.8761 C   0  0  0  0  0
    4.2963   -1.7528    0.9145 C   0  0  0  0  0
    4.1046   -3.0232    1.4578 C   0  0  0  0  0
    5.5093   -1.0901    1.1015 C   0  0  0  0  0
    0.8732    1.1714    0.2416 C   0  0  0  0  0
    3.2089   -1.1058    0.1359 C   0  0  0  0  0
    1.2737    4.0977   -3.8113 C   0  0  0  0  0
    2.6028    4.6996   -3.3881 C   0  0  0  0  0
    0.3858    4.2785   -2.5853 C   0  0  0  0  0
    2.7648    4.2144   -1.9550 C   0  0  0  0  0
    1.3403    4.2361   -1.3755 C   0  0  0  0  0
    0.8628   -0.3004    0.1899 C   0  0  0  0  0
    1.1691    1.8717   -0.8566 N   0  0  0  0  0
    1.0806    3.1460   -0.4389 N   0  0  0  0  0
    2.0227   -0.8975    0.8185 N   0  0  0  0  0
    3.4043   -0.8169   -1.0417 O   0  0  0  0  0
    2.9269   -3.6884    1.2882 O   0  0  0  0  0
    5.7176    0.1520    0.5801 O   0  0  0  0  0
  1  2  1  0  0  0
  3  8  1  0  0  0
  4  9  1  0  0  0
  5 18  1  0  0  0
  6  7  1  0  0  0
  6 10  1  0  0  0
  7 21  1  0  0  0
  8 22  1  0  0  0
 10 19  1  0  0  0
 11 12  1  0  0  0
 11 13  1  0  0  0
 12 14  1  0  0  0
 13 15  1  0  0  0
 14 15  1  0  0  0
 15 18  1  0  0  0
 16  9  1  0  0  0
 16 19  1  0  0  0
 18 17  1  0  0  0
  1  3  2  0  0  0
  2  7  2  0  0  0
  4  5  2  0  0  0
  6  8  2  0  0  0
  9 17  2  0  0  0
 10 20  2  0  0  0
M  END
> <rmsd>
0.26275444

$$$$
ZINC92125522


 22 24  0  0  0  0  0  0  0  0999 V2000
    6.3225   -2.9542    2.4015 C   0  0  0  0  0
    5.1110   -3.6179    2.2087 C   0  0  0  0  0
    6.5193   -1.6876    1.8512 C   0  0  0  0  0
    1.1733    2.0569   -0.8610 C   0  0  0  0  0
    1.0431    3.3067   -0.3064 C   0  0  0  0  0
    4.2928   -1.7486    0.9150 C   0  0  0  0  0
    4.0961   -3.0151    1.4654 C   0  0  0  0  0
    5.5045   -1.0848    1.1079 C   0  0  0  0  0
    0.8766    1.1717    0.1926 C   0  0  0  0  0
    3.2124   -1.1067    0.1228 C   0  0  0  0  0
    0.4798    3.8414    4.4193 C   0  0  0  0  0
   -0.8368    4.4880    4.0242 C   0  0  0  0  0
    1.3813    4.0866    3.2145 C   0  0  0  0  0
   -0.9926    4.0968    2.5620 C   0  0  0  0  0
    0.4374    4.1345    1.9967 C   0  0  0  0  0
    0.8661   -0.3004    0.1511 C   0  0  0  0  0
    0.5805    1.8055    1.3305 N   0  0  0  0  0
    0.6904    3.1021    0.9951 N   0  0  0  0  0
    2.0205   -0.8934    0.7936 N   0  0  0  0  0
    3.4179   -0.8258   -1.0551 O   0  0  0  0  0
    2.9198   -3.6813    1.2901 O   0  0  0  0  0
    5.7175    0.1536    0.5798 O   0  0  0  0  0
  1  2  1  0  0  0
  3  8  1  0  0  0
  4  9  1  0  0  0
  5 18  1  0  0  0
  6  7  1  0  0  0
  6 10  1  0  0  0
  7 21  1  0  0  0
  8 22  1  0  0  0
 10 19  1  0  0  0
 11 12  1  0  0  0
 11 13  1  0  0  0
 12 14  1  0  0  0
 13 15  1  0  0  0
 14 15  1  0  0  0
 15 18  1  0  0  0
 16  9  1  0  0  0
 16 19  1  0  0  0
 18 17  1  0  0  0
  1  3  2  0  0  0
  2  7  2  0  0  0
  4  5  2  0  0  0
  6  8  2  0  0  0
  9 17  2  0  0  0
 10 20  2  0  0  0
M  END
> <rmsd>
0.259916872

$$$$
ZINC92103513


 21 23  0  0  0  0  0  0  0  0999 V2000
    2.0393    3.2383    0.6955 C   0  0  0  0  0
    1.4844    3.7875   -0.4514 C   0  0  0  0  0
    6.5133   -3.0627    2.0993 C   0  0  0  0  0
    1.8142    1.8957    0.9999 C   0  0  0  0  0
    5.3002   -3.7390    1.9697 C   0  0  0  0  0
    6.6366   -1.7553    1.6289 C   0  0  0  0  0
    0.6938    2.9973   -1.2831 C   0  0  0  0  0
    4.3339   -1.8005    0.8993 C   0  0  0  0  0
    1.0418    1.0666    0.1590 C   0  0  0  0  0
    4.2106   -3.1080    1.3697 C   0  0  0  0  0
    5.5470   -1.1243    1.0289 C   0  0  0  0  0
    0.4530    1.6443   -0.9823 C   0  0  0  0  0
    3.1736   -1.1284    0.2597 C   0  0  0  0  0
    0.2470   -1.2827   -0.5316 C   0  0  0  0  0
   -1.0150   -0.7016   -1.1380 C   0  0  0  0  0
    0.8277   -0.3821    0.5636 C   0  0  0  0  0
    2.0477   -0.9934    1.0519 N   0  0  0  0  0
    3.2636   -0.7581   -0.9079 O   0  0  0  0  0
    3.0342   -3.7871    1.2542 O   0  0  0  0  0
    5.6891    0.1538    0.5771 O   0  0  0  0  0
   -0.6107    0.7640   -2.1212 S   0  0  0  0  0
  1  2  1  0  0  0
  3  5  1  0  0  0
  4  9  1  0  0  0
  6 11  1  0  0  0
  7 12  1  0  0  0
  8 10  1  0  0  0
  8 13  1  0  0  0
 10 19  1  0  0  0
 11 20  1  0  0  0
 12 21  1  0  0  0
 13 17  1  0  0  0
 14 15  1  0  0  0
 14 16  1  0  0  0
 15 21  1  0  0  0
 16  9  1  0  0  0
 16 17  1  0  0  0
  1  4  2  0  0  0
  2  7  2  0  0  0
  3  6  2  0  0  0
  5 10  2  0  0  0
  8 11  2  0  0  0
  9 12  2  0  0  0
 13 18  2  0  0  0
M  END
> <rmsd>
0.434567332

$$$$
ZINC92910760


 20 21  0  0  0  0  0  0  0  0999 V2000
    1.1923   -0.7692   -0.2276 C   0  0  0  0  0
    2.6967    0.5276   -1.1822 C   0  0  0  0  0
    2.3242   -1.4742   -0.5625 C   0  0  0  0  0
    4.0888   -0.6121    2.2082 C   0  0  0  0  0
    3.7624   -3.7143    4.1988 C   0  0  0  0  0
    4.2659   -2.2729    4.1020 C   0  0  0  0  0
    2.4270   -3.7326    3.4627 C   0  0  0  0  0
    3.3349   -1.5582    3.1212 C   0  0  0  0  0
    2.5934   -2.6710    2.3803 C   0  0  0  0  0
    0.9565    2.5534    0.6500 C   0  0  0  0  0
    0.5578    1.6406   -0.4969 C   0  0  0  0  0
    3.2571   -0.6612   -1.1560 N   0  0  0  0  0
    5.0099   -1.1365    1.4565 N   0  0  0  0  0
    1.4460    0.5117   -0.6303 N   0  0  0  0  0
    3.7105    0.7076    2.2759 N   0  0  0  0  0
    3.3202   -3.1992    1.2503 N   0  0  0  0  0
    1.3220   -3.8612   -0.2338 O   0  0  0  0  0
    3.5996   -3.6175   -1.2720 O   0  0  0  0  0
    5.6129   -0.1465    0.6749 O   0  0  0  0  0
    2.6106   -3.1984   -0.2974 S   0  0  0  0  0
  1 14  1  0  0  0
  2 14  1  0  0  0
  3 12  1  0  0  0
  4 15  1  0  0  0
  5  6  1  0  0  0
  5  7  1  0  0  0
  6  8  1  0  0  0
  7  9  1  0  0  0
  8  4  1  0  0  0
  8  9  1  0  0  0
  9 16  1  0  0  0
 10 11  1  0  0  0
 11 14  1  0  0  0
 13 19  1  0  0  0
 20  3  1  0  0  0
 20 16  1  0  0  0
  1  3  2  0  0  0
  2 12  2  0  0  0
  4 13  2  0  0  0
 20 17  2  0  0  0
 20 18  2  0  0  0
M  END
> <rmsd>
0.231553152

$$$$
ZINC00238478


 22 24  0  0  0  0  0  0  0  0999 V2000
    0.4880    0.9545   -0.1147 C   0  0  0  0  0
   -0.0933    2.0634   -0.7302 C   0  0  0  0  0
    2.3691    2.3111    0.5686 C   0  0  0  0  0
    5.2306   -3.7389    1.8284 C   0  0  0  0  0
    6.6782   -1.8206    1.5803 C   0  0  0  0  0
    4.3714   -1.6924    0.8739 C   0  0  0  0  0
    1.7147    1.0794    0.5381 C   0  0  0  0  0
    0.5540    3.2986   -0.6889 C   0  0  0  0  0
    1.7950    3.4174   -0.0584 C   0  0  0  0  0
    6.4822   -3.1421    1.9811 C   0  0  0  0  0
    4.1753   -3.0140    1.2748 C   0  0  0  0  0
    5.6229   -1.0957    1.0268 C   0  0  0  0  0
    3.2425   -0.9157    0.2813 C   0  0  0  0  0
    0.4872    5.6089   -0.8992 C   0  0  0  0  0
    2.0010    5.5465   -0.9587 C   0  0  0  0  0
    2.3296   -0.1074    1.2000 C   0  0  0  0  0
    3.0714   -0.9454   -0.9356 O   0  0  0  0  0
   -0.0761    4.3548   -1.2936 O   0  0  0  0  0
    2.4952    4.5947   -0.0125 O   0  0  0  0  0
    7.5123   -3.8497    2.5205 O   0  0  0  0  0
    2.9610   -3.6167    1.1328 O   0  0  0  0  0
    5.8367    0.1946    0.6432 O   0  0  0  0  0
  1  2  1  0  0  0
  3  7  1  0  0  0
  4 10  1  0  0  0
  5 12  1  0  0  0
  6 11  1  0  0  0
  6 13  1  0  0  0
  8  9  1  0  0  0
  8 18  1  0  0  0
  9 19  1  0  0  0
 10 20  1  0  0  0
 11 21  1  0  0  0
 12 22  1  0  0  0
 14 15  1  0  0  0
 14 18  1  0  0  0
 15 19  1  0  0  0
 16  7  1  0  0  0
 16 13  1  0  0  0
  1  7  2  0  0  0
  2  8  2  0  0  0
  3  9  2  0  0  0
  4 11  2  0  0  0
  5 10  2  0  0  0
  6 12  2  0  0  0
 13 17  2  0  0  0
M  END
> <rmsd>
0.441075504

$$$$
ZINC00238478


 22 24  0  0  0  0  0  0  0  0999 V2000
    2.3671    2.3112    0.5725 C   0  0  0  0  0
    1.7980    3.4223   -0.0505 C   0  0  0  0  0
    0.4857    0.9553   -0.1114 C   0  0  0  0  0
    5.2313   -3.7388    1.8291 C   0  0  0  0  0
    6.6785   -1.8203    1.5808 C   0  0  0  0  0
    4.3717   -1.6927    0.8742 C   0  0  0  0  0
    1.7145    1.0786    0.5376 C   0  0  0  0  0
    0.5756    3.2969   -0.7111 C   0  0  0  0  0
   -0.0907    2.0690   -0.7230 C   0  0  0  0  0
    6.4827   -3.1418    1.9817 C   0  0  0  0  0
    4.1758   -3.0143    1.2753 C   0  0  0  0  0
    5.6231   -1.0957    1.0270 C   0  0  0  0  0
    3.2427   -0.9163    0.2813 C   0  0  0  0  0
   -0.9730    4.1038   -2.2399 C   0  0  0  0  0
   -1.9529    3.1359   -1.6058 C   0  0  0  0  0
    2.3296   -0.1080    1.1998 C   0  0  0  0  0
    3.0717   -0.9462   -0.9356 O   0  0  0  0  0
    0.0773    4.4183   -1.3213 O   0  0  0  0  0
   -1.3083    1.8903   -1.3261 O   0  0  0  0  0
    7.5129   -3.8490    2.5214 O   0  0  0  0  0
    2.9617   -3.6172    1.1332 O   0  0  0  0  0
    5.8366    0.1946    0.6432 O   0  0  0  0  0
  1  2  1  0  0  0
  3  7  1  0  0  0
  4 10  1  0  0  0
  5 12  1  0  0  0
  6 11  1  0  0  0
  6 13  1  0  0  0
  8  9  1  0  0  0
  8 18  1  0  0  0
  9 19  1  0  0  0
 10 20  1  0  0  0
 11 21  1  0  0  0
 12 22  1  0  0  0
 14 15  1  0  0  0
 14 18  1  0  0  0
 15 19  1  0  0  0
 16  7  1  0  0  0
 16 13  1  0  0  0
  1  7  2  0  0  0
  2  8  2  0  0  0
  3  9  2  0  0  0
  4 11  2  0  0  0
  5 10  2  0  0  0
  6 12  2  0  0  0
 13 17  2  0  0  0
M  END
> <rmsd>
0.442005068

$$$$
ZINC92121421


 22 23  0  0  0  0  0  0  0  0999 V2000
    6.3264   -2.9266    2.4378 C   0  0  0  0  0
    0.4702    1.7502    1.4095 C   0  0  0  0  0
    5.1264   -3.6083    2.2357 C   0  0  0  0  0
    6.5126   -1.6619    1.8795 C   0  0  0  0  0
    0.4524    3.1382    1.4888 C   0  0  0  0  0
    1.1676    1.9405   -0.8563 C   0  0  0  0  0
    4.2988   -1.7607    0.9171 C   0  0  0  0  0
    0.8334    1.1320    0.2182 C   0  0  0  0  0
    4.1125   -3.0254    1.4753 C   0  0  0  0  0
    5.4989   -1.0790    1.1191 C   0  0  0  0  0
    0.8037    3.8569    0.3575 C   0  0  0  0  0
    3.2392   -1.1513    0.1214 C   0  0  0  0  0
    1.4797    8.2167   -1.7476 C   0  0  0  0  0
    0.8626   -0.3644    0.1005 C   0  0  0  0  0
    1.1110    7.4127   -0.5138 C   0  0  0  0  0
    1.1627    5.9156   -0.7777 C   0  0  0  0  0
    1.1621    3.2918   -0.8173 N   0  0  0  0  0
    2.0144   -0.9364    0.7601 N   0  0  0  0  0
    3.4354   -0.8657   -1.0709 O   0  0  0  0  0
    2.9475   -3.7089    1.2913 O   0  0  0  0  0
    5.7016    0.1580    0.5837 O   0  0  0  0  0
    0.7939    5.2262    0.4108 O   0  0  0  0  0
  1  3  1  0  0  0
  2  8  1  0  0  0
  4 10  1  0  0  0
  5 11  1  0  0  0
  6 17  1  0  0  0
  7  9  1  0  0  0
  7 12  1  0  0  0
  9 20  1  0  0  0
 10 21  1  0  0  0
 11 22  1  0  0  0
 12 18  1  0  0  0
 13 15  1  0  0  0
 14  8  1  0  0  0
 14 18  1  0  0  0
 15 16  1  0  0  0
 16 22  1  0  0  0
  1  4  2  0  0  0
  2  5  2  0  0  0
  3  9  2  0  0  0
  6  8  2  0  0  0
  7 10  2  0  0  0
 11 17  2  0  0  0
 12 19  2  0  0  0
M  END
> <rmsd>
0.278054446

$$$$
ZINC92120459


 22 23  0  0  0  0  0  0  0  0999 V2000
    6.3274   -2.9273    2.4309 C   0  0  0  0  0
    5.1268   -3.6085    2.2304 C   0  0  0  0  0
    6.5126   -1.6617    1.8744 C   0  0  0  0  0
    1.4468    3.0178    1.3714 C   0  0  0  0  0
    4.2966   -1.7585    0.9168 C   0  0  0  0  0
    0.8967    3.8577    0.4166 C   0  0  0  0  0
    0.2773    1.8908   -0.8213 C   0  0  0  0  0
    4.1114   -3.0242    1.4734 C   0  0  0  0  0
    5.4972   -1.0774    1.1174 C   0  0  0  0  0
    0.3027    3.2755   -0.6976 C   0  0  0  0  0
    0.8553    1.1389    0.1890 C   0  0  0  0  0
    3.2352   -1.1476    0.1246 C   0  0  0  0  0
    0.9494    5.3351    0.5956 C   0  0  0  0  0
   -0.3537    1.2425   -2.0070 C   0  0  0  0  0
    0.5978    4.4677   -2.7341 C   0  0  0  0  0
    0.8588   -0.3603    0.1103 C   0  0  0  0  0
    1.4414    1.6686    1.2860 N   0  0  0  0  0
    2.0120   -0.9337    0.7664 N   0  0  0  0  0
    3.4289   -0.8601   -1.0677 O   0  0  0  0  0
    2.9458   -3.7071    1.2909 O   0  0  0  0  0
    5.6989    0.1605    0.5835 O   0  0  0  0  0
   -0.2520    4.0608   -1.6640 O   0  0  0  0  0
  1  2  1  0  0  0
  3  9  1  0  0  0
  4  6  1  0  0  0
  5  8  1  0  0  0
  5 12  1  0  0  0
  7 10  1  0  0  0
  8 20  1  0  0  0
  9 21  1  0  0  0
 10 22  1  0  0  0
 11 17  1  0  0  0
 12 18  1  0  0  0
 13  6  1  0  0  0
 14  7  1  0  0  0
 15 22  1  0  0  0
 16 11  1  0  0  0
 16 18  1  0  0  0
  1  3  2  0  0  0
  2  8  2  0  0  0
  4 17  2  0  0  0
  5  9  2  0  0  0
  6 10  2  0  0  0
  7 11  2  0  0  0
 12 19  2  0  0  0
M  END
> <rmsd>
0.28140673

$$$$
ZINC92120459


 22 23  0  0  0  0  0  0  0  0999 V2000
    6.4290   -3.2282    2.1123 C   0  0  0  0  0
    5.1586   -3.7914    1.9922 C   0  0  0  0  0
    6.6708   -1.9428    1.6276 C   0  0  0  0  0
   -0.1591    0.9404    3.8736 C   0  0  0  0  0
    4.3717   -1.7837    0.9023 C   0  0  0  0  0
   -0.8474    2.1257    3.6715 C   0  0  0  0  0
   -0.3252    1.9213    1.3327 C   0  0  0  0  0
    4.1299   -3.0692    1.3871 C   0  0  0  0  0
    5.6422   -1.2206    1.0226 C   0  0  0  0  0
   -0.9275    2.6188    2.3739 C   0  0  0  0  0
    0.3399    0.7451    1.6395 C   0  0  0  0  0
    3.2965   -1.0286    0.2691 C   0  0  0  0  0
   -1.4755    2.8351    4.8204 C   0  0  0  0  0
   -0.3969    2.4296   -0.0676 C   0  0  0  0  0
   -0.8371    4.9881    2.1899 C   0  0  0  0  0
    1.0099   -0.0509    0.5572 C   0  0  0  0  0
    0.4388    0.2348    2.8875 N   0  0  0  0  0
    2.1661   -0.7656    1.0483 N   0  0  0  0  0
    3.3970   -0.6666   -0.9143 O   0  0  0  0  0
    2.8958   -3.6384    1.2811 O   0  0  0  0  0
    5.9001    0.0341    0.5567 O   0  0  0  0  0
   -1.5941    3.7816    2.1254 O   0  0  0  0  0
  1  2  1  0  0  0
  3  9  1  0  0  0
  4  6  1  0  0  0
  5  8  1  0  0  0
  5 12  1  0  0  0
  7 10  1  0  0  0
  8 20  1  0  0  0
  9 21  1  0  0  0
 10 22  1  0  0  0
 11 17  1  0  0  0
 12 18  1  0  0  0
 13  6  1  0  0  0
 14  7  1  0  0  0
 15 22  1  0  0  0
 16 11  1  0  0  0
 16 18  1  0  0  0
  1  3  2  0  0  0
  2  8  2  0  0  0
  4 17  2  0  0  0
  5  9  2  0  0  0
  6 10  2  0  0  0
  7 11  2  0  0  0
 12 19  2  0  0  0
M  END
> <rmsd>
0.501298487

$$$$
ZINC92117408


 22 23  0  0  0  0  0  0  0  0999 V2000
    6.3269   -2.9263    2.4385 C   0  0  0  0  0
    0.4707    1.7504    1.4103 C   0  0  0  0  0
    5.1269   -3.6080    2.2364 C   0  0  0  0  0
    6.5131   -1.6616    1.8803 C   0  0  0  0  0
    0.4529    3.1385    1.4895 C   0  0  0  0  0
    1.1681    1.9408   -0.8556 C   0  0  0  0  0
    4.2993   -1.7605    0.9178 C   0  0  0  0  0
    0.8339    1.1323    0.2189 C   0  0  0  0  0
    4.1130   -3.0251    1.4760 C   0  0  0  0  0
    5.4994   -1.0787    1.1199 C   0  0  0  0  0
    0.8043    3.8572    0.3582 C   0  0  0  0  0
    3.2397   -1.1510    0.1221 C   0  0  0  0  0
    0.4091    7.2352   -0.8449 C   0  0  0  0  0
    2.6702    6.1231   -0.7886 C   0  0  0  0  0
    0.8631   -0.3641    0.1012 C   0  0  0  0  0
    1.1632    5.9159   -0.7770 C   0  0  0  0  0
    1.1626    3.2921   -0.8165 N   0  0  0  0  0
    2.0149   -0.9361    0.7608 N   0  0  0  0  0
    3.4359   -0.8654   -1.0702 O   0  0  0  0  0
    2.9480   -3.7086    1.2921 O   0  0  0  0  0
    5.7021    0.1582    0.5844 O   0  0  0  0  0
    0.7945    5.2265    0.4115 O   0  0  0  0  0
  1  3  1  0  0  0
  2  8  1  0  0  0
  4 10  1  0  0  0
  5 11  1  0  0  0
  6 17  1  0  0  0
  7  9  1  0  0  0
  7 12  1  0  0  0
  9 20  1  0  0  0
 10 21  1  0  0  0
 11 22  1  0  0  0
 12 18  1  0  0  0
 13 16  1  0  0  0
 14 16  1  0  0  0
 15  8  1  0  0  0
 15 18  1  0  0  0
 16 22  1  0  0  0
  1  4  2  0  0  0
  2  5  2  0  0  0
  3  9  2  0  0  0
  6  8  2  0  0  0
  7 10  2  0  0  0
 11 17  2  0  0  0
 12 19  2  0  0  0
M  END
> <rmsd>
0.278054446

$$$$
ZINC92126181


 22 25  0  0  0  0  0  0  0  0999 V2000
    6.3766   -2.9970    2.3304 C   0  0  0  0  0
    5.1617   -3.6590    2.1531 C   0  0  0  0  0
    6.5595   -1.7205    1.7987 C   0  0  0  0  0
    4.3124   -1.7677    0.9124 C   0  0  0  0  0
    4.1295   -3.0444    1.4441 C   0  0  0  0  0
    5.5273   -1.1059    1.0897 C   0  0  0  0  0
    3.2135   -1.1132    0.1567 C   0  0  0  0  0
    0.4754    3.2443   -0.7469 C   0  0  0  0  0
    1.3503    3.5111    0.4647 C   0  0  0  0  0
   -0.3339    2.0160   -0.3402 C   0  0  0  0  0
    1.8243    2.1151    0.8469 C   0  0  0  0  0
   -1.0924   -1.2972    2.1972 C   0  0  0  0  0
   -1.9791   -0.1757    2.8123 C   0  0  0  0  0
   -0.4701   -0.5877    1.0048 C   0  0  0  0  0
    0.8675   -0.3114    0.2529 C   0  0  0  0  0
   -0.0643    0.6472    1.8725 C   0  0  0  0  0
    0.5954    1.2298    0.6055 C   0  0  0  0  0
    2.0482   -0.9199    0.8640 N   0  0  0  0  0
    3.3919   -0.8108   -1.0203 O   0  0  0  0  0
   -1.2673    1.0566    2.5343 O   0  0  0  0  0
    2.9502   -3.7089    1.2837 O   0  0  0  0  0
    5.7271    0.1422    0.5794 O   0  0  0  0  0
  1  2  1  0  0  0
  3  6  1  0  0  0
  4  5  1  0  0  0
  4  7  1  0  0  0
  5 21  1  0  0  0
  6 22  1  0  0  0
  7 18  1  0  0  0
  8  9  1  0  0  0
  8 10  1  0  0  0
  9 11  1  0  0  0
 10 17  1  0  0  0
 11 17  1  0  0  0
 12 13  1  0  0  0
 12 14  1  0  0  0
 13 20  1  0  0  0
 14 15  1  0  0  0
 14 16  1  0  0  0
 15 17  1  0  0  0
 15 18  1  0  0  0
 16 17  1  0  0  0
 16 20  1  0  0  0
  1  3  2  0  0  0
  2  5  2  0  0  0
  4  6  2  0  0  0
  7 19  2  0  0  0
M  END
> <rmsd>
0.246380597

$$$$
ZINC92126178


 22 25  0  0  0  0  0  0  0  0999 V2000
    6.2864   -2.8775    2.4696 C   0  0  0  0  0
    5.0935   -3.5690    2.2596 C   0  0  0  0  0
    6.4701   -1.6157    1.9039 C   0  0  0  0  0
    4.2677   -1.7372    0.9180 C   0  0  0  0  0
    4.0841   -2.9990    1.4838 C   0  0  0  0  0
    5.4608   -1.0456    1.1281 C   0  0  0  0  0
    3.1931   -1.1302    0.0912 C   0  0  0  0  0
    2.2364    2.7255    1.0153 C   0  0  0  0  0
    1.5838    3.2774   -0.2404 C   0  0  0  0  0
    1.1579    1.8035    1.5687 C   0  0  0  0  0
    0.9373    2.0492   -0.8757 C   0  0  0  0  0
   -1.5808   -1.4315   -0.0963 C   0  0  0  0  0
   -1.9588   -0.4757   -1.2243 C   0  0  0  0  0
   -0.5291   -0.6934    0.7218 C   0  0  0  0  0
    0.8307   -0.3724    0.0528 C   0  0  0  0  0
   -0.9516    0.7709    0.4929 C   0  0  0  0  0
    0.5532    1.1479    0.3111 C   0  0  0  0  0
    1.9889   -0.9349    0.7353 N   0  0  0  0  0
    3.4202   -0.8631   -1.0860 O   0  0  0  0  0
   -1.8302    0.8336   -0.6582 O   0  0  0  0  0
    2.9259   -3.6919    1.2923 O   0  0  0  0  0
    5.6608    0.1886    0.5854 O   0  0  0  0  0
  1  2  1  0  0  0
  3  6  1  0  0  0
  4  5  1  0  0  0
  4  7  1  0  0  0
  5 21  1  0  0  0
  6 22  1  0  0  0
  7 18  1  0  0  0
  8  9  1  0  0  0
  8 10  1  0  0  0
  9 11  1  0  0  0
 10 17  1  0  0  0
 11 17  1  0  0  0
 12 13  1  0  0  0
 12 14  1  0  0  0
 13 20  1  0  0  0
 14 15  1  0  0  0
 14 16  1  0  0  0
 15 17  1  0  0  0
 15 18  1  0  0  0
 16 17  1  0  0  0
 16 20  1  0  0  0
  1  3  2  0  0  0
  2  5  2  0  0  0
  4  6  2  0  0  0
  7 19  2  0  0  0
M  END
> <rmsd>
0.412401766

$$$$
ZINC92126200


 22 23  0  0  0  0  0  0  0  0999 V2000
    6.3158   -2.9359    2.4272 C   0  0  0  0  0
    5.1096   -3.6076    2.2281 C   0  0  0  0  0
    6.5100   -1.6716    1.8709 C   0  0  0  0  0
    4.2919   -1.7506    0.9167 C   0  0  0  0  0
    0.8723    1.1740    0.1955 C   0  0  0  0  0
    4.0977   -3.0150    1.4729 C   0  0  0  0  0
    5.4981   -1.0789    1.1157 C   0  0  0  0  0
    0.5686    1.9826    1.3071 C   0  0  0  0  0
    1.1784    2.0651   -0.8039 C   0  0  0  0  0
    3.2341   -1.1310    0.1264 C   0  0  0  0  0
    1.3100    1.6501    3.6791 C   0  0  0  0  0
    0.4361    2.1116   -3.1983 C   0  0  0  0  0
    1.2583    4.5749   -0.9063 C   0  0  0  0  0
    0.8639   -0.3252    0.1162 C   0  0  0  0  0
    0.1704    1.5493    2.6581 C   0  0  0  0  0
    1.5775    1.8543   -2.2083 C   0  0  0  0  0
    0.6724    3.2871    1.0396 N   0  0  0  0  0
    1.0449    3.3050   -0.2515 N   0  0  0  0  0
    2.0135   -0.9078    0.7701 N   0  0  0  0  0
    3.4282   -0.8444   -1.0660 O   0  0  0  0  0
    2.9266   -3.6888    1.2920 O   0  0  0  0  0
    5.7087    0.1576    0.5822 O   0  0  0  0  0
  1  2  1  0  0  0
  3  7  1  0  0  0
  4  6  1  0  0  0
  4 10  1  0  0  0
  5  8  1  0  0  0
  6 21  1  0  0  0
  7 22  1  0  0  0
  9 18  1  0  0  0
 10 19  1  0  0  0
 11 15  1  0  0  0
 12 16  1  0  0  0
 13 18  1  0  0  0
 14  5  1  0  0  0
 14 19  1  0  0  0
 15  8  1  0  0  0
 16  9  1  0  0  0
 18 17  1  0  0  0
  1  3  2  0  0  0
  2  6  2  0  0  0
  4  7  2  0  0  0
  5  9  2  0  0  0
  8 17  2  0  0  0
 10 20  2  0  0  0
M  END
> <rmsd>
0.266205162

$$$$
ZINC92124601


 21 22  0  0  0  0  0  0  0  0999 V2000
    6.3452   -2.9383    2.4104 C   0  0  0  0  0
    1.1920    3.2470   -0.8858 C   0  0  0  0  0
    1.1839    1.8526   -0.9189 C   0  0  0  0  0
    5.1447   -3.6206    2.2143 C   0  0  0  0  0
    6.5244   -1.6694    1.8596 C   0  0  0  0  0
    0.5340    3.1955    1.4384 C   0  0  0  0  0
    4.3023   -1.7653    0.9161 C   0  0  0  0  0
    0.8671    3.9185    0.2929 C   0  0  0  0  0
    0.8510    1.1296    0.2266 C   0  0  0  0  0
    4.1232   -3.0341    1.4671 C   0  0  0  0  0
    5.5029   -1.0829    1.1123 C   0  0  0  0  0
    0.5260    1.8011    1.4053 C   0  0  0  0  0
    3.2345   -1.1521    0.1342 C   0  0  0  0  0
    0.8759    5.4096    0.3269 C   0  0  0  0  0
    1.3932    1.5296    3.9912 C   0  0  0  0  0
    0.8567   -0.3693    0.1399 C   0  0  0  0  0
    2.0152   -0.9439    0.7852 N   0  0  0  0  0
    3.4198   -0.8578   -1.0577 O   0  0  0  0  0
    2.9577   -3.7184    1.2887 O   0  0  0  0  0
    5.6988    0.1582    0.5837 O   0  0  0  0  0
    0.0918    0.9192    2.8993 S   0  0  0  0  0
  1  4  1  0  0  0
  2  8  1  0  0  0
  3  9  1  0  0  0
  5 11  1  0  0  0
  6 12  1  0  0  0
  7 10  1  0  0  0
  7 13  1  0  0  0
 10 19  1  0  0  0
 11 20  1  0  0  0
 12 21  1  0  0  0
 13 17  1  0  0  0
 14  8  1  0  0  0
 15 21  1  0  0  0
 16  9  1  0  0  0
 16 17  1  0  0  0
  1  5  2  0  0  0
  2  3  2  0  0  0
  4 10  2  0  0  0
  6  8  2  0  0  0
  7 11  2  0  0  0
  9 12  2  0  0  0
 13 18  2  0  0  0
M  END
> <rmsd>
0.285702735

$$$$
ZINC92123276


 22 23  0  0  0  0  0  0  0  0999 V2000
    6.3686   -3.1541    2.2152 C   0  0  0  0  0
    5.1064   -3.7298    2.0711 C   0  0  0  0  0
    6.6162   -1.8796    1.7053 C   0  0  0  0  0
    2.7033    3.5626    2.0078 C   0  0  0  0  0
    3.1586    1.6571    3.4216 C   0  0  0  0  0
    3.8667    4.1808    2.4661 C   0  0  0  0  0
    4.3221    2.2752    3.8800 C   0  0  0  0  0
    4.3392   -1.7566    0.9070 C   0  0  0  0  0
    2.3493    2.3008    2.4857 C   0  0  0  0  0
    4.0916   -3.0311    1.4170 C   0  0  0  0  0
    5.6015   -1.1808    1.0512 C   0  0  0  0  0
    4.6762    3.5371    3.4021 C   0  0  0  0  0
    3.2588   -1.0126    0.2098 C   0  0  0  0  0
   -0.0664    2.2034    0.0715 C   0  0  0  0  0
    0.9771   -0.0599    0.4158 C   0  0  0  0  0
    1.1272    1.4435    0.6344 C   0  0  0  0  0
    2.1235   -0.7521    0.9602 N   0  0  0  0  0
    3.4125   -0.6934   -0.9663 O   0  0  0  0  0
    2.8653   -3.6123    1.2882 O   0  0  0  0  0
    5.8649    0.0635    0.5613 O   0  0  0  0  0
    1.2080    1.6945    2.0361 O   0  0  0  0  0
    5.7935    4.1306    3.8422 F   0  0  0  0  0
  1  2  1  0  0  0
  3 11  1  0  0  0
  4  9  1  0  0  0
  5  7  1  0  0  0
  6 12  1  0  0  0
  8 10  1  0  0  0
  8 13  1  0  0  0
  9 21  1  0  0  0
 10 19  1  0  0  0
 11 20  1  0  0  0
 12 22  1  0  0  0
 13 17  1  0  0  0
 14 16  1  0  0  0
 15 16  1  0  0  0
 15 17  1  0  0  0
 16 21  1  0  0  0
  1  3  2  0  0  0
  2 10  2  0  0  0
  4  6  2  0  0  0
  5  9  2  0  0  0
  7 12  2  0  0  0
  8 11  2  0  0  0
 13 18  2  0  0  0
M  END
> <rmsd>
0.355640292

$$$$
ZINC92123276


 22 23  0  0  0  0  0  0  0  0999 V2000
    6.3689   -3.1538    2.2155 C   0  0  0  0  0
    5.1067   -3.7296    2.0715 C   0  0  0  0  0
    6.6165   -1.8794    1.7055 C   0  0  0  0  0
    3.2976    2.8597    2.0996 C   0  0  0  0  0
    1.3373    3.8137    3.1408 C   0  0  0  0  0
    4.0465    3.9685    2.4937 C   0  0  0  0  0
    2.0862    4.9225    3.5349 C   0  0  0  0  0
    4.3394   -1.7565    0.9073 C   0  0  0  0  0
    1.9429    2.7823    2.4231 C   0  0  0  0  0
    4.0919   -3.0310    1.4175 C   0  0  0  0  0
    5.6017   -1.1807    1.0514 C   0  0  0  0  0
    3.4408    4.9999    3.2114 C   0  0  0  0  0
    3.2590   -1.0125    0.2101 C   0  0  0  0  0
   -0.0662    2.2035    0.0719 C   0  0  0  0  0
    0.9773   -0.0598    0.4162 C   0  0  0  0  0
    1.1274    1.4436    0.6347 C   0  0  0  0  0
    2.1237   -0.7520    0.9606 N   0  0  0  0  0
    3.4126   -0.6934   -0.9660 O   0  0  0  0  0
    2.8655   -3.6122    1.2888 O   0  0  0  0  0
    5.8651    0.0637    0.5614 O   0  0  0  0  0
    1.2083    1.6947    2.0364 O   0  0  0  0  0
    4.1601    6.0646    3.5899 F   0  0  0  0  0
  1  2  1  0  0  0
  3 11  1  0  0  0
  4  9  1  0  0  0
  5  7  1  0  0  0
  6 12  1  0  0  0
  8 10  1  0  0  0
  8 13  1  0  0  0
  9 21  1  0  0  0
 10 19  1  0  0  0
 11 20  1  0  0  0
 12 22  1  0  0  0
 13 17  1  0  0  0
 14 16  1  0  0  0
 15 16  1  0  0  0
 15 17  1  0  0  0
 16 21  1  0  0  0
  1  3  2  0  0  0
  2 10  2  0  0  0
  4  6  2  0  0  0
  5  9  2  0  0  0
  7 12  2  0  0  0
  8 11  2  0  0  0
 13 18  2  0  0  0
M  END
> <rmsd>
0.355813593

$$$$
ZINC92123271


 22 23  0  0  0  0  0  0  0  0999 V2000
    3.8656    4.1816    2.4647 C   0  0  0  0  0
    4.6758    3.5389    3.4006 C   0  0  0  0  0
    6.3683   -3.1540    2.2159 C   0  0  0  0  0
    2.7022    3.5627    2.0074 C   0  0  0  0  0
    5.1061   -3.7297    2.0718 C   0  0  0  0  0
    6.6160   -1.8795    1.7058 C   0  0  0  0  0
    4.3228    2.2771    3.8791 C   0  0  0  0  0
    4.3390   -1.7566    0.9076 C   0  0  0  0  0
    4.0914   -3.0311    1.4177 C   0  0  0  0  0
    5.6013   -1.1808    1.0517 C   0  0  0  0  0
    2.3491    2.3009    2.4860 C   0  0  0  0  0
    3.1594    1.6582    3.4218 C   0  0  0  0  0
    3.2586   -1.0126    0.2103 C   0  0  0  0  0
   -0.0665    2.2034    0.0719 C   0  0  0  0  0
    0.9769   -0.0599    0.4162 C   0  0  0  0  0
    1.1271    1.4435    0.6347 C   0  0  0  0  0
    2.1232   -0.7521    0.9606 N   0  0  0  0  0
    3.4123   -0.6935   -0.9658 O   0  0  0  0  0
    2.8650   -3.6123    1.2889 O   0  0  0  0  0
    5.8647    0.0635    0.5617 O   0  0  0  0  0
    1.2078    1.6946    2.0364 O   0  0  0  0  0
    2.8257    0.4458    3.8854 F   0  0  0  0  0
  1  2  1  0  0  0
  3  5  1  0  0  0
  4 11  1  0  0  0
  6 10  1  0  0  0
  7 12  1  0  0  0
  8  9  1  0  0  0
  8 13  1  0  0  0
  9 19  1  0  0  0
 10 20  1  0  0  0
 11 21  1  0  0  0
 12 22  1  0  0  0
 13 17  1  0  0  0
 14 16  1  0  0  0
 15 16  1  0  0  0
 15 17  1  0  0  0
 16 21  1  0  0  0
  1  4  2  0  0  0
  2  7  2  0  0  0
  3  6  2  0  0  0
  5  9  2  0  0  0
  8 10  2  0  0  0
 11 12  2  0  0  0
 13 18  2  0  0  0
M  END
> <rmsd>
0.355724186

$$$$
ZINC92126444


 22 23  0  0  0  0  0  0  0  0999 V2000
    6.3825   -3.1765    2.1831 C   0  0  0  0  0
    0.1465    1.4760    3.0155 C   0  0  0  0  0
    2.3488    2.3962    2.6405 C   0  0  0  0  0
    5.1168   -3.7464    2.0468 C   0  0  0  0  0
    6.6300   -1.8989    1.6807 C   0  0  0  0  0
    0.2599    1.7595    4.3765 C   0  0  0  0  0
    2.4621    2.6798    4.0015 C   0  0  0  0  0
    4.3459   -1.7613    0.9055 C   0  0  0  0  0
    1.1910    1.7943    2.1475 C   0  0  0  0  0
    4.0985   -3.0388    1.4080 C   0  0  0  0  0
    5.6117   -1.1914    1.0419 C   0  0  0  0  0
    1.4175    2.3613    4.8696 C   0  0  0  0  0
    3.2617   -1.0078    0.2244 C   0  0  0  0  0
   -0.1332    2.2205    0.0321 C   0  0  0  0  0
    0.9855   -0.0488    0.4598 C   0  0  0  0  0
    1.0669    1.4839    0.6521 C   0  0  0  0  0
    2.1475   -0.7573    0.9938 N   0  0  0  0  0
    3.4052   -0.6801   -0.9505 O   0  0  0  0  0
    2.8687   -3.6145    1.2865 O   0  0  0  0  0
    5.8751    0.0558    0.5591 O   0  0  0  0  0
    2.2371    1.9586   -0.0282 O   0  0  0  0  0
    1.5253    2.6361    6.1762 F   0  0  0  0  0
  1  4  1  0  0  0
  2  9  1  0  0  0
  3  7  1  0  0  0
  5 11  1  0  0  0
  6 12  1  0  0  0
  8 10  1  0  0  0
  8 13  1  0  0  0
 10 19  1  0  0  0
 11 20  1  0  0  0
 12 22  1  0  0  0
 13 17  1  0  0  0
 14 16  1  0  0  0
 15 16  1  0  0  0
 15 17  1  0  0  0
 16  9  1  0  0  0
 16 21  1  0  0  0
  1  5  2  0  0  0
  2  6  2  0  0  0
  3  9  2  0  0  0
  4 10  2  0  0  0
  7 12  2  0  0  0
  8 11  2  0  0  0
 13 18  2  0  0  0
M  END
> <rmsd>
0.384020716

$$$$
ZINC92123271


 22 23  0  0  0  0  0  0  0  0999 V2000
    3.9174    2.4043    3.8885 C   0  0  0  0  0
    3.8613    1.4956    4.9453 C   0  0  0  0  0
    6.4306   -3.1877    2.1030 C   0  0  0  0  0
    2.8766    2.4610    2.9616 C   0  0  0  0  0
    5.1696   -3.7715    1.9825 C   0  0  0  0  0
    6.6504   -1.8968    1.6223 C   0  0  0  0  0
    2.7646    0.6437    5.0752 C   0  0  0  0  0
    4.3480   -1.7737    0.9005 C   0  0  0  0  0
    4.1282   -3.0645    1.3812 C   0  0  0  0  0
    5.6091   -1.1898    1.0211 C   0  0  0  0  0
    1.7798    1.6090    3.0914 C   0  0  0  0  0
    1.7237    0.7003    4.1482 C   0  0  0  0  0
    3.2393   -1.0207    0.2595 C   0  0  0  0  0
    0.1719    2.2054   -0.0780 C   0  0  0  0  0
    0.9569   -0.0968    0.5650 C   0  0  0  0  0
    1.1005    1.4012    0.8219 C   0  0  0  0  0
    2.1262   -0.7929    1.0527 N   0  0  0  0  0
    3.3525   -0.6668   -0.9112 O   0  0  0  0  0
    2.9036   -3.6539    1.2747 O   0  0  0  0  0
    5.8456    0.0705    0.5591 O   0  0  0  0  0
    0.7595    1.6653    2.1815 O   0  0  0  0  0
    0.6728   -0.1210    4.2784 F   0  0  0  0  0
  1  2  1  0  0  0
  3  5  1  0  0  0
  4 11  1  0  0  0
  6 10  1  0  0  0
  7 12  1  0  0  0
  8  9  1  0  0  0
  8 13  1  0  0  0
  9 19  1  0  0  0
 10 20  1  0  0  0
 11 21  1  0  0  0
 12 22  1  0  0  0
 13 17  1  0  0  0
 14 16  1  0  0  0
 15 16  1  0  0  0
 15 17  1  0  0  0
 16 21  1  0  0  0
  1  4  2  0  0  0
  2  7  2  0  0  0
  3  6  2  0  0  0
  5  9  2  0  0  0
  8 10  2  0  0  0
 11 12  2  0  0  0
 13 18  2  0  0  0
M  END
> <rmsd>
0.305174351

$$$$
ZINC92126444


 22 23  0  0  0  0  0  0  0  0999 V2000
    6.1956   -2.8026    2.5828 C   0  0  0  0  0
   -0.7216    1.7713   -1.7040 C   0  0  0  0  0
   -2.1543    1.5017    0.2225 C   0  0  0  0  0
    5.0114   -3.5011    2.3475 C   0  0  0  0  0
    6.4014   -1.5581    1.9873 C   0  0  0  0  0
   -1.8154    2.1964   -2.4580 C   0  0  0  0  0
   -3.2482    1.9268   -0.5314 C   0  0  0  0  0
    4.2388   -1.7106    0.9212 C   0  0  0  0  0
   -0.8911    1.4239   -0.3638 C   0  0  0  0  0
    4.0329   -2.9550    1.5167 C   0  0  0  0  0
    5.4230   -1.0121    1.1564 C   0  0  0  0  0
   -3.0787    2.2742   -1.8717 C   0  0  0  0  0
    3.1970   -1.1292    0.0358 C   0  0  0  0  0
    1.3963    2.0458    0.5258 C   0  0  0  0  0
    0.8382   -0.3750   -0.1163 C   0  0  0  0  0
    0.3102    0.9576    0.4652 C   0  0  0  0  0
    1.9727   -0.9177    0.6292 N   0  0  0  0  0
    3.4695   -0.8972   -1.1392 O   0  0  0  0  0
    2.8827   -3.6543    1.3013 O   0  0  0  0  0
    5.6443    0.2056    0.5854 O   0  0  0  0  0
   -0.1105    0.7208    1.8159 O   0  0  0  0  0
   -4.1287    2.6849   -2.5949 F   0  0  0  0  0
  1  4  1  0  0  0
  2  9  1  0  0  0
  3  7  1  0  0  0
  5 11  1  0  0  0
  6 12  1  0  0  0
  8 10  1  0  0  0
  8 13  1  0  0  0
 10 19  1  0  0  0
 11 20  1  0  0  0
 12 22  1  0  0  0
 13 17  1  0  0  0
 14 16  1  0  0  0
 15 16  1  0  0  0
 15 17  1  0  0  0
 16  9  1  0  0  0
 16 21  1  0  0  0
  1  5  2  0  0  0
  2  6  2  0  0  0
  3  9  2  0  0  0
  4 10  2  0  0  0
  7 12  2  0  0  0
  8 11  2  0  0  0
 13 18  2  0  0  0
M  END
> <rmsd>
0.485072076

$$$$
ZINC92123271


 22 23  0  0  0  0  0  0  0  0999 V2000
    4.3218    2.2737    3.8810 C   0  0  0  0  0
    4.6768    3.5354    3.4040 C   0  0  0  0  0
    6.3689   -3.1541    2.2156 C   0  0  0  0  0
    3.1583    1.6563    3.4218 C   0  0  0  0  0
    5.1067   -3.7298    2.0715 C   0  0  0  0  0
    6.6165   -1.8796    1.7056 C   0  0  0  0  0
    3.8682    4.1800    2.4679 C   0  0  0  0  0
    4.3395   -1.7567    0.9073 C   0  0  0  0  0
    4.0919   -3.0312    1.4174 C   0  0  0  0  0
    5.6018   -1.1809    1.0515 C   0  0  0  0  0
    2.3496    2.3009    2.4858 C   0  0  0  0  0
    2.7045    3.5627    2.0087 C   0  0  0  0  0
    3.2591   -1.0127    0.2100 C   0  0  0  0  0
   -0.0660    2.2034    0.0716 C   0  0  0  0  0
    0.9775   -0.0600    0.4160 C   0  0  0  0  0
    1.1276    1.4435    0.6345 C   0  0  0  0  0
    2.1238   -0.7522    0.9604 N   0  0  0  0  0
    3.4129   -0.6936   -0.9660 O   0  0  0  0  0
    2.8656   -3.6124    1.2887 O   0  0  0  0  0
    5.8652    0.0634    0.5615 O   0  0  0  0  0
    1.2084    1.6945    2.0362 O   0  0  0  0  0
    1.9318    4.1872    1.1094 F   0  0  0  0  0
  1  2  1  0  0  0
  3  5  1  0  0  0
  4 11  1  0  0  0
  6 10  1  0  0  0
  7 12  1  0  0  0
  8  9  1  0  0  0
  8 13  1  0  0  0
  9 19  1  0  0  0
 10 20  1  0  0  0
 11 21  1  0  0  0
 12 22  1  0  0  0
 13 17  1  0  0  0
 14 16  1  0  0  0
 15 16  1  0  0  0
 15 17  1  0  0  0
 16 21  1  0  0  0
  1  4  2  0  0  0
  2  7  2  0  0  0
  3  6  2  0  0  0
  5  9  2  0  0  0
  8 10  2  0  0  0
 11 12  2  0  0  0
 13 18  2  0  0  0
M  END
> <rmsd>
0.355724096

$$$$
ZINC92123271


 22 23  0  0  0  0  0  0  0  0999 V2000
    4.0473    3.9668    2.4933 C   0  0  0  0  0
    3.4427    4.9987    3.2111 C   0  0  0  0  0
    6.3686   -3.1540    2.2159 C   0  0  0  0  0
    3.2974    2.8586    2.0994 C   0  0  0  0  0
    5.1064   -3.7296    2.0718 C   0  0  0  0  0
    6.6163   -1.8795    1.7059 C   0  0  0  0  0
    2.0882    4.9224    3.5350 C   0  0  0  0  0
    4.3393   -1.7566    0.9076 C   0  0  0  0  0
    4.0917   -3.0310    1.4177 C   0  0  0  0  0
    5.6016   -1.1808    1.0518 C   0  0  0  0  0
    1.9428    2.7823    2.4233 C   0  0  0  0  0
    1.3382    3.8142    3.1411 C   0  0  0  0  0
    3.2589   -1.0125    0.2103 C   0  0  0  0  0
   -0.0662    2.2035    0.0720 C   0  0  0  0  0
    0.9772   -0.0598    0.4163 C   0  0  0  0  0
    1.1274    1.4436    0.6348 C   0  0  0  0  0
    2.1236   -0.7520    0.9607 N   0  0  0  0  0
    3.4126   -0.6935   -0.9657 O   0  0  0  0  0
    2.8653   -3.6122    1.2890 O   0  0  0  0  0
    5.8650    0.0636    0.5618 O   0  0  0  0  0
    1.2081    1.6947    2.0365 O   0  0  0  0  0
    0.0371    3.7469    3.4554 F   0  0  0  0  0
  1  2  1  0  0  0
  3  5  1  0  0  0
  4 11  1  0  0  0
  6 10  1  0  0  0
  7 12  1  0  0  0
  8  9  1  0  0  0
  8 13  1  0  0  0
  9 19  1  0  0  0
 10 20  1  0  0  0
 11 21  1  0  0  0
 12 22  1  0  0  0
 13 17  1  0  0  0
 14 16  1  0  0  0
 15 16  1  0  0  0
 15 17  1  0  0  0
 16 21  1  0  0  0
  1  4  2  0  0  0
  2  7  2  0  0  0
  3  6  2  0  0  0
  5  9  2  0  0  0
  8 10  2  0  0  0
 11 12  2  0  0  0
 13 18  2  0  0  0
M  END
> <rmsd>
0.355724126

$$$$
ZINC92127021


 22 23  0  0  0  0  0  0  0  0999 V2000
    6.3338   -2.9257    2.4302 C   0  0  0  0  0
    0.3536    1.8985   -0.8474 C   0  0  0  0  0
    5.1356   -3.6108    2.2294 C   0  0  0  0  0
    6.5148   -1.6592    1.8744 C   0  0  0  0  0
    0.3595    3.2908   -0.7641 C   0  0  0  0  0
    1.3770    1.7634    1.3370 C   0  0  0  0  0
    4.2991   -1.7630    0.9167 C   0  0  0  0  0
    0.8622    1.1348    0.2032 C   0  0  0  0  0
    4.1182   -3.0295    1.4728 C   0  0  0  0  0
    5.4974   -1.0779    1.1176 C   0  0  0  0  0
    1.3829    3.1558    1.4203 C   0  0  0  0  0
    0.8743    3.9195    0.3698 C   0  0  0  0  0
    3.2357   -1.1553    0.1249 C   0  0  0  0  0
   -0.4299   -0.9900    0.6591 C   0  0  0  0  0
    3.2746    4.0887    2.5191 C   0  0  0  0  0
    0.8567   -0.3759    0.1110 C   0  0  0  0  0
    2.0118   -0.9457    0.7667 N   0  0  0  0  0
    3.4284   -0.8665   -1.0674 O   0  0  0  0  0
    2.9549   -3.7162    1.2900 O   0  0  0  0  0
    5.6950    0.1608    0.5842 O   0  0  0  0  0
    1.8843    3.7682    2.5276 O   0  0  0  0  0
    0.8761    5.2574    0.4448 F   0  0  0  0  0
  1  3  1  0  0  0
  2  8  1  0  0  0
  4 10  1  0  0  0
  5 12  1  0  0  0
  6 11  1  0  0  0
  7  9  1  0  0  0
  7 13  1  0  0  0
  9 19  1  0  0  0
 10 20  1  0  0  0
 11 21  1  0  0  0
 12 22  1  0  0  0
 13 17  1  0  0  0
 14 16  1  0  0  0
 15 21  1  0  0  0
 16  8  1  0  0  0
 16 17  1  0  0  0
  1  4  2  0  0  0
  2  5  2  0  0  0
  3  9  2  0  0  0
  6  8  2  0  0  0
  7 10  2  0  0  0
 11 12  2  0  0  0
 13 18  2  0  0  0
M  END
> <rmsd>
0.290840715

$$$$
ZINC92127021


 22 23  0  0  0  0  0  0  0  0999 V2000
    6.3336   -2.9254    2.4314 C   0  0  0  0  0
    1.3763    1.7616    1.3375 C   0  0  0  0  0
    5.1354   -3.6105    2.2303 C   0  0  0  0  0
    6.5147   -1.6590    1.8755 C   0  0  0  0  0
    1.3806    3.1537    1.4241 C   0  0  0  0  0
    0.3535    1.9003   -0.8469 C   0  0  0  0  0
    4.2994   -1.7629    0.9171 C   0  0  0  0  0
    0.8628    1.1348    0.2021 C   0  0  0  0  0
    4.1183   -3.0293    1.4732 C   0  0  0  0  0
    5.4977   -1.0778    1.1183 C   0  0  0  0  0
    0.3579    3.2925   -0.7604 C   0  0  0  0  0
    0.8714    3.9192    0.3750 C   0  0  0  0  0
    3.2363   -1.1552    0.1248 C   0  0  0  0  0
   -0.4295   -0.9899    0.6578 C   0  0  0  0  0
   -1.5260    4.3659   -1.7376 C   0  0  0  0  0
    0.8573   -0.3759    0.1101 C   0  0  0  0  0
    2.0122   -0.9456    0.7662 N   0  0  0  0  0
    3.4293   -0.8666   -1.0674 O   0  0  0  0  0
    2.9551   -3.7161    1.2901 O   0  0  0  0  0
    5.6954    0.1608    0.5849 O   0  0  0  0  0
   -0.1381    4.0385   -1.7851 O   0  0  0  0  0
    0.8793    5.2563    0.4631 F   0  0  0  0  0
  1  3  1  0  0  0
  2  8  1  0  0  0
  4 10  1  0  0  0
  5 12  1  0  0  0
  6 11  1  0  0  0
  7  9  1  0  0  0
  7 13  1  0  0  0
  9 19  1  0  0  0
 10 20  1  0  0  0
 11 21  1  0  0  0
 12 22  1  0  0  0
 13 17  1  0  0  0
 14 16  1  0  0  0
 15 21  1  0  0  0
 16  8  1  0  0  0
 16 17  1  0  0  0
  1  4  2  0  0  0
  2  5  2  0  0  0
  3  9  2  0  0  0
  6  8  2  0  0  0
  7 10  2  0  0  0
 11 12  2  0  0  0
 13 18  2  0  0  0
M  END
> <rmsd>
0.290758193

$$$$
ZINC92123271


 22 23  0  0  0  0  0  0  0  0999 V2000
    2.0840    4.9220    3.5355 C   0  0  0  0  0
    3.4387    5.0006    3.2126 C   0  0  0  0  0
    6.3688   -3.1543    2.2158 C   0  0  0  0  0
    1.3361    3.8127    3.1410 C   0  0  0  0  0
    5.1066   -3.7301    2.0717 C   0  0  0  0  0
    6.6165   -1.8798    1.7059 C   0  0  0  0  0
    4.0454    3.9698    2.4950 C   0  0  0  0  0
    4.3395   -1.7569    0.9076 C   0  0  0  0  0
    4.0919   -3.0314    1.4176 C   0  0  0  0  0
    5.6017   -1.1811    1.0518 C   0  0  0  0  0
    1.9429    2.7818    2.4235 C   0  0  0  0  0
    3.2975    2.8604    2.1004 C   0  0  0  0  0
    3.2591   -1.0129    0.2103 C   0  0  0  0  0
   -0.0661    2.2031    0.0721 C   0  0  0  0  0
    0.9774   -0.0602    0.4163 C   0  0  0  0  0
    1.1275    1.4432    0.6349 C   0  0  0  0  0
    2.1237   -0.7524    0.9607 N   0  0  0  0  0
    3.4128   -0.6937   -0.9658 O   0  0  0  0  0
    2.8655   -3.6126    1.2888 O   0  0  0  0  0
    5.8651    0.0633    0.5618 O   0  0  0  0  0
    1.2082    1.6942    2.0366 O   0  0  0  0  0
    3.8864    1.8734    1.4110 F   0  0  0  0  0
  1  2  1  0  0  0
  3  5  1  0  0  0
  4 11  1  0  0  0
  6 10  1  0  0  0
  7 12  1  0  0  0
  8  9  1  0  0  0
  8 13  1  0  0  0
  9 19  1  0  0  0
 10 20  1  0  0  0
 11 21  1  0  0  0
 12 22  1  0  0  0
 13 17  1  0  0  0
 14 16  1  0  0  0
 15 16  1  0  0  0
 15 17  1  0  0  0
 16 21  1  0  0  0
  1  4  2  0  0  0
  2  7  2  0  0  0
  3  6  2  0  0  0
  5  9  2  0  0  0
  8 10  2  0  0  0
 11 12  2  0  0  0
 13 18  2  0  0  0
M  END
> <rmsd>
0.355640352

$$$$
ZINC92127021


 22 23  0  0  0  0  0  0  0  0999 V2000
    6.3388   -3.0069    2.3800 C   0  0  0  0  0
    0.6082    1.1873    1.0330 C   0  0  0  0  0
    5.1208   -3.6692    2.2274 C   0  0  0  0  0
    6.5308   -1.7559    1.7936 C   0  0  0  0  0
    0.5876    2.5820    1.0381 C   0  0  0  0  0
    0.8039    1.1989   -1.3751 C   0  0  0  0  0
    4.2867   -1.8296    0.9018 C   0  0  0  0  0
    0.7165    0.4957   -0.1735 C   0  0  0  0  0
    4.0947   -3.0806    1.4882 C   0  0  0  0  0
    5.5047   -1.1673    1.0545 C   0  0  0  0  0
    0.7833    2.5937   -1.3700 C   0  0  0  0  0
    0.6751    3.2852   -0.1634 C   0  0  0  0  0
    3.2141   -1.2142    0.1284 C   0  0  0  0  0
   -0.5361   -1.6212    0.4112 C   0  0  0  0  0
    0.9785    2.5081   -3.7386 C   0  0  0  0  0
    0.7373   -1.0176   -0.1779 C   0  0  0  0  0
    1.9048   -1.5281    0.5040 N   0  0  0  0  0
    3.4791   -0.4670   -0.8272 O   0  0  0  0  0
    2.9122   -3.7450    1.3526 O   0  0  0  0  0
    5.7133    0.0561    0.4907 O   0  0  0  0  0
    0.8701    3.2788   -2.5428 O   0  0  0  0  0
    0.6560    4.6250   -0.1523 F   0  0  0  0  0
  1  3  1  0  0  0
  2  8  1  0  0  0
  4 10  1  0  0  0
  5 12  1  0  0  0
  6 11  1  0  0  0
  7  9  1  0  0  0
  7 13  1  0  0  0
  9 19  1  0  0  0
 10 20  1  0  0  0
 11 21  1  0  0  0
 12 22  1  0  0  0
 13 17  1  0  0  0
 14 16  1  0  0  0
 15 21  1  0  0  0
 16  8  1  0  0  0
 16 17  1  0  0  0
  1  4  2  0  0  0
  2  5  2  0  0  0
  3  9  2  0  0  0
  6  8  2  0  0  0
  7 10  2  0  0  0
 11 12  2  0  0  0
 13 18  2  0  0  0
M  END
> <rmsd>
0.343859196

$$$$
ZINC92123201


 22 23  0  0  0  0  0  0  0  0999 V2000
    6.3684   -3.1541    2.2156 C   0  0  0  0  0
    3.8661    4.1811    2.4673 C   0  0  0  0  0
    5.1062   -3.7298    2.0715 C   0  0  0  0  0
    6.6161   -1.8796    1.7056 C   0  0  0  0  0
    2.7034    3.5625    2.0079 C   0  0  0  0  0
    4.6748    3.5379    3.4043 C   0  0  0  0  0
    3.1578    1.6577    3.4228 C   0  0  0  0  0
    4.3391   -1.7567    0.9073 C   0  0  0  0  0
    2.3492    2.3008    2.4857 C   0  0  0  0  0
    4.0915   -3.0312    1.4174 C   0  0  0  0  0
    5.6014   -1.1809    1.0515 C   0  0  0  0  0
    4.3206    2.2762    3.8821 C   0  0  0  0  0
    3.2587   -1.0127    0.2100 C   0  0  0  0  0
   -0.0664    2.2034    0.0716 C   0  0  0  0  0
    0.9770   -0.0600    0.4160 C   0  0  0  0  0
    1.1272    1.4434    0.6345 C   0  0  0  0  0
    2.1233   -0.7522    0.9604 N   0  0  0  0  0
    3.4124   -0.6936   -0.9661 O   0  0  0  0  0
    2.8651   -3.6124    1.2886 O   0  0  0  0  0
    5.8648    0.0634    0.5615 O   0  0  0  0  0
    1.2079    1.6945    2.0362 O   0  0  0  0  0
    5.0979    1.6581    4.7809 F   0  0  0  0  0
  1  3  1  0  0  0
  2  6  1  0  0  0
  4 11  1  0  0  0
  5  9  1  0  0  0
  7 12  1  0  0  0
  8 10  1  0  0  0
  8 13  1  0  0  0
  9 21  1  0  0  0
 10 19  1  0  0  0
 11 20  1  0  0  0
 12 22  1  0  0  0
 13 17  1  0  0  0
 14 16  1  0  0  0
 15 16  1  0  0  0
 15 17  1  0  0  0
 16 21  1  0  0  0
  1  4  2  0  0  0
  2  5  2  0  0  0
  3 10  2  0  0  0
  6 12  2  0  0  0
  7  9  2  0  0  0
  8 11  2  0  0  0
 13 18  2  0  0  0
M  END
> <rmsd>
0.355724245

$$$$
ZINC92123201


 22 23  0  0  0  0  0  0  0  0999 V2000
    6.3682   -3.1538    2.2153 C   0  0  0  0  0
    4.3225    2.2752    3.8788 C   0  0  0  0  0
    5.1060   -3.7295    2.0712 C   0  0  0  0  0
    6.6158   -1.8793    1.7054 C   0  0  0  0  0
    3.1584    1.6576    3.4217 C   0  0  0  0  0
    4.6771    3.5364    3.4001 C   0  0  0  0  0
    2.7034    3.5623    2.0068 C   0  0  0  0  0
    4.3388   -1.7564    0.9071 C   0  0  0  0  0
    2.3489    2.3010    2.4857 C   0  0  0  0  0
    4.0913   -3.0309    1.4171 C   0  0  0  0  0
    5.6011   -1.1806    1.0513 C   0  0  0  0  0
    3.8675    4.1800    2.4640 C   0  0  0  0  0
    3.2584   -1.0123    0.2098 C   0  0  0  0  0
   -0.0667    2.2037    0.0716 C   0  0  0  0  0
    0.9768   -0.0597    0.4159 C   0  0  0  0  0
    1.1269    1.4437    0.6344 C   0  0  0  0  0
    2.1231   -0.7519    0.9602 N   0  0  0  0  0
    3.4122   -0.6932   -0.9662 O   0  0  0  0  0
    2.8649   -3.6121    1.2883 O   0  0  0  0  0
    5.8645    0.0638    0.5614 O   0  0  0  0  0
    1.2076    1.6947    2.0361 O   0  0  0  0  0
    4.2074    5.3917    2.0053 F   0  0  0  0  0
  1  3  1  0  0  0
  2  6  1  0  0  0
  4 11  1  0  0  0
  5  9  1  0  0  0
  7 12  1  0  0  0
  8 10  1  0  0  0
  8 13  1  0  0  0
  9 21  1  0  0  0
 10 19  1  0  0  0
 11 20  1  0  0  0
 12 22  1  0  0  0
 13 17  1  0  0  0
 14 16  1  0  0  0
 15 16  1  0  0  0
 15 17  1  0  0  0
 16 21  1  0  0  0
  1  4  2  0  0  0
  2  5  2  0  0  0
  3 10  2  0  0  0
  6 12  2  0  0  0
  7  9  2  0  0  0
  8 11  2  0  0  0
 13 18  2  0  0  0
M  END
> <rmsd>
0.355640382

$$$$
ZINC92123201


 22 23  0  0  0  0  0  0  0  0999 V2000
    6.4306   -3.1878    2.1038 C   0  0  0  0  0
    2.7636    0.6420    5.0757 C   0  0  0  0  0
    5.1696   -3.7715    1.9833 C   0  0  0  0  0
    6.6504   -1.8969    1.6232 C   0  0  0  0  0
    1.7228    0.7001    4.1489 C   0  0  0  0  0
    3.8614    1.4927    4.9460 C   0  0  0  0  0
    2.8776    2.4597    2.9625 C   0  0  0  0  0
    4.3480   -1.7737    0.9013 C   0  0  0  0  0
    1.7798    1.6090    3.0922 C   0  0  0  0  0
    4.1282   -3.0646    1.3821 C   0  0  0  0  0
    5.6091   -1.1898    1.0219 C   0  0  0  0  0
    3.9184    2.4015    3.8893 C   0  0  0  0  0
    3.2393   -1.0208    0.2603 C   0  0  0  0  0
    0.1719    2.2054   -0.0772 C   0  0  0  0  0
    0.9569   -0.0969    0.5659 C   0  0  0  0  0
    1.1005    1.4011    0.8227 C   0  0  0  0  0
    2.1262   -0.7930    1.0535 N   0  0  0  0  0
    3.3525   -0.6668   -0.9104 O   0  0  0  0  0
    2.9037   -3.6539    1.2755 O   0  0  0  0  0
    5.8456    0.0705    0.5599 O   0  0  0  0  0
    0.7595    1.6652    2.1823 O   0  0  0  0  0
    4.9719    3.2194    3.7657 F   0  0  0  0  0
  1  3  1  0  0  0
  2  6  1  0  0  0
  4 11  1  0  0  0
  5  9  1  0  0  0
  7 12  1  0  0  0
  8 10  1  0  0  0
  8 13  1  0  0  0
  9 21  1  0  0  0
 10 19  1  0  0  0
 11 20  1  0  0  0
 12 22  1  0  0  0
 13 17  1  0  0  0
 14 16  1  0  0  0
 15 16  1  0  0  0
 15 17  1  0  0  0
 16 21  1  0  0  0
  1  4  2  0  0  0
  2  5  2  0  0  0
  3 10  2  0  0  0
  6 12  2  0  0  0
  7  9  2  0  0  0
  8 11  2  0  0  0
 13 18  2  0  0  0
M  END
> <rmsd>
0.3051745

$$$$
ZINC92123201


 22 23  0  0  0  0  0  0  0  0999 V2000
    6.3684   -3.1537    2.2157 C   0  0  0  0  0
    2.0862    4.9220    3.5363 C   0  0  0  0  0
    5.1062   -3.7294    2.0716 C   0  0  0  0  0
    6.6161   -1.8792    1.7058 C   0  0  0  0  0
    1.3369    3.8140    3.1410 C   0  0  0  0  0
    3.4412    4.9986    3.2140 C   0  0  0  0  0
    3.2975    2.8591    2.1010 C   0  0  0  0  0
    4.3390   -1.7563    0.9075 C   0  0  0  0  0
    1.9424    2.7824    2.4234 C   0  0  0  0  0
    4.0915   -3.0308    1.4175 C   0  0  0  0  0
    5.6013   -1.1805    1.0517 C   0  0  0  0  0
    4.0468    3.9671    2.4964 C   0  0  0  0  0
    3.2586   -1.0122    0.2102 C   0  0  0  0  0
   -0.0665    2.2038    0.0720 C   0  0  0  0  0
    0.9770   -0.0596    0.4162 C   0  0  0  0  0
    1.1271    1.4438    0.6348 C   0  0  0  0  0
    2.1233   -0.7518    0.9606 N   0  0  0  0  0
    3.4124   -0.6931   -0.9659 O   0  0  0  0  0
    2.8651   -3.6120    1.2887 O   0  0  0  0  0
    5.8647    0.0639    0.5617 O   0  0  0  0  0
    1.2078    1.6948    2.0365 O   0  0  0  0  0
    5.3476    4.0415    2.1857 F   0  0  0  0  0
  1  3  1  0  0  0
  2  6  1  0  0  0
  4 11  1  0  0  0
  5  9  1  0  0  0
  7 12  1  0  0  0
  8 10  1  0  0  0
  8 13  1  0  0  0
  9 21  1  0  0  0
 10 19  1  0  0  0
 11 20  1  0  0  0
 12 22  1  0  0  0
 13 17  1  0  0  0
 14 16  1  0  0  0
 15 16  1  0  0  0
 15 17  1  0  0  0
 16 21  1  0  0  0
  1  4  2  0  0  0
  2  5  2  0  0  0
  3 10  2  0  0  0
  6 12  2  0  0  0
  7  9  2  0  0  0
  8 11  2  0  0  0
 13 18  2  0  0  0
M  END
> <rmsd>
0.355640292

$$$$
ZINC92123201


 22 23  0  0  0  0  0  0  0  0999 V2000
    6.3684   -3.1542    2.2157 C   0  0  0  0  0
    4.0456    3.9690    2.4929 C   0  0  0  0  0
    5.1062   -3.7299    2.0716 C   0  0  0  0  0
    6.6161   -1.8797    1.7057 C   0  0  0  0  0
    3.2972    2.8596    2.0998 C   0  0  0  0  0
    3.4395    5.0010    3.2094 C   0  0  0  0  0
    1.3363    3.8140    3.1395 C   0  0  0  0  0
    4.3391   -1.7568    0.9074 C   0  0  0  0  0
    1.9425    2.7821    2.4231 C   0  0  0  0  0
    4.0914   -3.0313    1.4175 C   0  0  0  0  0
    5.6013   -1.1810    1.0516 C   0  0  0  0  0
    2.0848    4.9235    3.5327 C   0  0  0  0  0
    3.2587   -1.0128    0.2101 C   0  0  0  0  0
   -0.0665    2.2033    0.0717 C   0  0  0  0  0
    0.9770   -0.0601    0.4161 C   0  0  0  0  0
    1.1271    1.4434    0.6346 C   0  0  0  0  0
    2.1233   -0.7523    0.9605 N   0  0  0  0  0
    3.4124   -0.6937   -0.9659 O   0  0  0  0  0
    2.8651   -3.6125    1.2888 O   0  0  0  0  0
    5.8648    0.0633    0.5616 O   0  0  0  0  0
    1.2079    1.6944    2.0363 O   0  0  0  0  0
    1.5032    5.9138    4.2219 F   0  0  0  0  0
  1  3  1  0  0  0
  2  6  1  0  0  0
  4 11  1  0  0  0
  5  9  1  0  0  0
  7 12  1  0  0  0
  8 10  1  0  0  0
  8 13  1  0  0  0
  9 21  1  0  0  0
 10 19  1  0  0  0
 11 20  1  0  0  0
 12 22  1  0  0  0
 13 17  1  0  0  0
 14 16  1  0  0  0
 15 16  1  0  0  0
 15 17  1  0  0  0
 16 21  1  0  0  0
  1  4  2  0  0  0
  2  5  2  0  0  0
  3 10  2  0  0  0
  6 12  2  0  0  0
  7  9  2  0  0  0
  8 11  2  0  0  0
 13 18  2  0  0  0
M  END
> <rmsd>
0.355724066

$$$$
ZINC92123142


 22 23  0  0  0  0  0  0  0  0999 V2000
    6.3917   -3.0277    2.3057 C   0  0  0  0  0
   -1.3327    1.9865    3.1917 C   0  0  0  0  0
    5.1703   -3.6793    2.1349 C   0  0  0  0  0
    6.5797   -1.7495    1.7798 C   0  0  0  0  0
   -1.2159    0.6042    3.3365 C   0  0  0  0  0
   -0.7310    2.6276    2.1088 C   0  0  0  0  0
    4.3251   -1.7748    0.9119 C   0  0  0  0  0
    0.1041    0.5039    1.3155 C   0  0  0  0  0
    4.1371   -3.0530    1.4380 C   0  0  0  0  0
    5.5465   -1.1231    1.0828 C   0  0  0  0  0
   -0.4975   -0.1372    2.3984 C   0  0  0  0  0
   -0.0127    1.8863    1.1707 C   0  0  0  0  0
    3.2451   -1.1199    0.1826 C   0  0  0  0  0
    0.0289   -1.3333   -0.4199 C   0  0  0  0  0
   -1.0398   -2.0587    3.6904 C   0  0  0  0  0
    0.8866   -0.2874    0.2897 C   0  0  0  0  0
    2.0536   -0.9023    0.8803 N   0  0  0  0  0
    3.3960   -0.8001   -1.0077 O   0  0  0  0  0
    2.9515   -3.7077    1.2836 O   0  0  0  0  0
    5.7515    0.1263    0.5779 O   0  0  0  0  0
   -0.3938   -1.4867    2.5550 O   0  0  0  0  0
    0.5620    2.5119    0.1338 F   0  0  0  0  0
  1  3  1  0  0  0
  2  5  1  0  0  0
  4 10  1  0  0  0
  6 12  1  0  0  0
  7  9  1  0  0  0
  7 13  1  0  0  0
  8 11  1  0  0  0
  9 19  1  0  0  0
 10 20  1  0  0  0
 11 21  1  0  0  0
 12 22  1  0  0  0
 13 17  1  0  0  0
 14 16  1  0  0  0
 15 21  1  0  0  0
 16  8  1  0  0  0
 16 17  1  0  0  0
  1  4  2  0  0  0
  2  6  2  0  0  0
  3  9  2  0  0  0
  5 11  2  0  0  0
  7 10  2  0  0  0
  8 12  2  0  0  0
 13 18  2  0  0  0
M  END
> <rmsd>
0.236693233

$$$$
ZINC92123142


 22 23  0  0  0  0  0  0  0  0999 V2000
    6.3313   -2.9230    2.4346 C   0  0  0  0  0
    0.8832    3.9168    0.3895 C   0  0  0  0  0
    5.1336   -3.6086    2.2327 C   0  0  0  0  0
    6.5127   -1.6570    1.8779 C   0  0  0  0  0
    0.3685    3.3009   -0.7513 C   0  0  0  0  0
    1.3874    3.1413    1.4335 C   0  0  0  0  0
    4.2985   -1.7623    0.9171 C   0  0  0  0  0
    0.8617    1.1339    0.1962 C   0  0  0  0  0
    4.1171   -3.0283    1.4741 C   0  0  0  0  0
    5.4963   -1.0766    1.1191 C   0  0  0  0  0
    0.3576    1.9094   -0.8479 C   0  0  0  0  0
    1.3766    1.7498    1.3369 C   0  0  0  0  0
    3.2360   -1.1556    0.1233 C   0  0  0  0  0
   -0.4304   -0.9909    0.6521 C   0  0  0  0  0
   -0.6427    2.1929   -2.9868 C   0  0  0  0  0
    0.8568   -0.3769    0.1053 C   0  0  0  0  0
    2.0111   -0.9458    0.7632 N   0  0  0  0  0
    3.4303   -0.8678   -1.0690 O   0  0  0  0  0
    2.9543   -3.7156    1.2903 O   0  0  0  0  0
    5.6942    0.1616    0.5849 O   0  0  0  0  0
   -0.1486    1.3242   -1.9693 O   0  0  0  0  0
    1.8631    1.0136    2.3458 F   0  0  0  0  0
  1  3  1  0  0  0
  2  5  1  0  0  0
  4 10  1  0  0  0
  6 12  1  0  0  0
  7  9  1  0  0  0
  7 13  1  0  0  0
  8 11  1  0  0  0
  9 19  1  0  0  0
 10 20  1  0  0  0
 11 21  1  0  0  0
 12 22  1  0  0  0
 13 17  1  0  0  0
 14 16  1  0  0  0
 15 21  1  0  0  0
 16  8  1  0  0  0
 16 17  1  0  0  0
  1  4  2  0  0  0
  2  6  2  0  0  0
  3  9  2  0  0  0
  5 11  2  0  0  0
  7 10  2  0  0  0
  8 12  2  0  0  0
 13 18  2  0  0  0
M  END
> <rmsd>
0.292194426

$$$$
ZINC92123142


 22 23  0  0  0  0  0  0  0  0999 V2000
    6.5249   -3.3839    1.7310 C   0  0  0  0  0
    1.6417    4.1859    1.8894 C   0  0  0  0  0
    5.2349   -3.9133    1.6967 C   0  0  0  0  0
    6.7479   -2.0642    1.3381 C   0  0  0  0  0
    2.2553    3.2235    2.6912 C   0  0  0  0  0
    0.8413    3.7928    0.8166 C   0  0  0  0  0
    4.3909   -1.8033    0.8764 C   0  0  0  0  0
    1.2684    1.4749    1.3475 C   0  0  0  0  0
    4.1679   -3.1230    1.2695 C   0  0  0  0  0
    5.6809   -1.2739    0.9107 C   0  0  0  0  0
    2.0687    1.8680    2.4202 C   0  0  0  0  0
    0.6547    2.4373    0.5457 C   0  0  0  0  0
    3.2754   -0.9771    0.4289 C   0  0  0  0  0
   -0.1615   -0.5691    1.7597 C   0  0  0  0  0
    3.4753    1.4317    4.2875 C   0  0  0  0  0
    1.0568    0.0078    1.0415 C   0  0  0  0  0
    2.2391   -0.7668    1.3431 N   0  0  0  0  0
    3.2618   -0.5118   -0.7223 O   0  0  0  0  0
    2.9153   -3.6603    1.2448 O   0  0  0  0  0
    5.9211    0.0132    0.5319 O   0  0  0  0  0
    2.6754    0.9412    3.2136 O   0  0  0  0  0
   -0.1160    2.0700   -0.4877 F   0  0  0  0  0
  1  3  1  0  0  0
  2  5  1  0  0  0
  4 10  1  0  0  0
  6 12  1  0  0  0
  7  9  1  0  0  0
  7 13  1  0  0  0
  8 11  1  0  0  0
  9 19  1  0  0  0
 10 20  1  0  0  0
 11 21  1  0  0  0
 12 22  1  0  0  0
 13 17  1  0  0  0
 14 16  1  0  0  0
 15 21  1  0  0  0
 16  8  1  0  0  0
 16 17  1  0  0  0
  1  4  2  0  0  0
  2  6  2  0  0  0
  3  9  2  0  0  0
  5 11  2  0  0  0
  7 10  2  0  0  0
  8 12  2  0  0  0
 13 18  2  0  0  0
M  END
> <rmsd>
0.52829212

$$$$
ZINC92123142


 22 23  0  0  0  0  0  0  0  0999 V2000
    6.3357   -2.9279    2.4272 C   0  0  0  0  0
    0.8623    3.9221    0.3560 C   0  0  0  0  0
    5.1371   -3.6125    2.2271 C   0  0  0  0  0
    6.5165   -1.6610    1.8723 C   0  0  0  0  0
    1.3746    3.1684    1.4120 C   0  0  0  0  0
    0.3502    3.2829   -0.7732 C   0  0  0  0  0
    4.2998   -1.7632    0.9169 C   0  0  0  0  0
    0.8631    1.1362    0.2095 C   0  0  0  0  0
    4.1191   -3.0302    1.4720 C   0  0  0  0  0
    5.4986   -1.0787    1.1171 C   0  0  0  0  0
    1.3751    1.7755    1.3387 C   0  0  0  0  0
    0.3506    1.8900   -0.8464 C   0  0  0  0  0
    3.2358   -1.1545    0.1267 C   0  0  0  0  0
   -0.4292   -0.9886    0.6649 C   0  0  0  0  0
    2.3818    1.7896    3.4933 C   0  0  0  0  0
    0.8570   -0.3744    0.1160 C   0  0  0  0  0
    2.0126   -0.9451    0.7700 N   0  0  0  0  0
    3.4273   -0.8647   -1.0655 O   0  0  0  0  0
    2.9554   -3.7164    1.2898 O   0  0  0  0  0
    5.6959    0.1604    0.5846 O   0  0  0  0  0
    1.8793    1.0546    2.3792 O   0  0  0  0  0
   -0.1434    1.2854   -1.9360 F   0  0  0  0  0
  1  3  1  0  0  0
  2  5  1  0  0  0
  4 10  1  0  0  0
  6 12  1  0  0  0
  7  9  1  0  0  0
  7 13  1  0  0  0
  8 11  1  0  0  0
  9 19  1  0  0  0
 10 20  1  0  0  0
 11 21  1  0  0  0
 12 22  1  0  0  0
 13 17  1  0  0  0
 14 16  1  0  0  0
 15 21  1  0  0  0
 16  8  1  0  0  0
 16 17  1  0  0  0
  1  4  2  0  0  0
  2  6  2  0  0  0
  3  9  2  0  0  0
  5 11  2  0  0  0
  7 10  2  0  0  0
  8 12  2  0  0  0
 13 18  2  0  0  0
M  END
> <rmsd>
0.289423674

$$$$
ZINC92123663


 22 23  0  0  0  0  0  0  0  0999 V2000
    6.5633   -3.1168    2.0980 C   0  0  0  0  0
   -0.7664    1.6563    2.6201 C   0  0  0  0  0
    1.5596    1.4799    3.2494 C   0  0  0  0  0
    5.3470   -3.7876    1.9696 C   0  0  0  0  0
    6.6919   -1.8097    1.6283 C   0  0  0  0  0
   -1.1012    1.9537    3.9412 C   0  0  0  0  0
    1.2248    1.7775    4.5704 C   0  0  0  0  0
    4.3881   -1.8441    0.9015 C   0  0  0  0  0
    0.5640    1.4194    2.2743 C   0  0  0  0  0
    4.2595   -3.1513    1.3714 C   0  0  0  0  0
    5.6044   -1.1734    1.0300 C   0  0  0  0  0
   -0.1057    2.0143    4.9163 C   0  0  0  0  0
    3.2511   -1.1788    0.2755 C   0  0  0  0  0
    0.3534    3.1346   -0.1790 C   0  0  0  0  0
    0.8877   -0.4082    0.5713 C   0  0  0  0  0
    0.9276    1.0977    0.8429 C   0  0  0  0  0
    2.1018   -1.0246    1.0559 N   0  0  0  0  0
    3.3201   -0.7959   -0.9037 O   0  0  0  0  0
    3.0799   -3.8250    1.2570 O   0  0  0  0  0
    5.7518    0.1043    0.5787 O   0  0  0  0  0
    0.0068    1.7683   -0.0182 O   0  0  0  0  0
   -0.4267    2.3027    6.1843 F   0  0  0  0  0
  1  4  1  0  0  0
  2  9  1  0  0  0
  3  7  1  0  0  0
  5 11  1  0  0  0
  6 12  1  0  0  0
  8 10  1  0  0  0
  8 13  1  0  0  0
 10 19  1  0  0  0
 11 20  1  0  0  0
 12 22  1  0  0  0
 13 17  1  0  0  0
 14 21  1  0  0  0
 15 16  1  0  0  0
 15 17  1  0  0  0
 16  9  1  0  0  0
 16 21  1  0  0  0
  1  5  2  0  0  0
  2  6  2  0  0  0
  3  9  2  0  0  0
  4 10  2  0  0  0
  7 12  2  0  0  0
  8 11  2  0  0  0
 13 18  2  0  0  0
M  END
> <rmsd>
0.494325638

$$$$
ZINC92122870


 22 23  0  0  0  0  0  0  0  0999 V2000
    6.1953   -2.8025    2.5828 C   0  0  0  0  0
    5.0110   -3.5008    2.3475 C   0  0  0  0  0
    6.4012   -1.5579    1.9874 C   0  0  0  0  0
   -0.8691    2.3283   -1.4527 C   0  0  0  0  0
    4.2386   -1.7103    0.9211 C   0  0  0  0  0
   -0.8911    1.4245   -0.3639 C   0  0  0  0  0
    4.0327   -2.9547    1.5167 C   0  0  0  0  0
    5.4228   -1.0119    1.1565 C   0  0  0  0  0
   -2.1712    2.4427   -1.8807 C   0  0  0  0  0
   -2.2053    1.0511   -0.2039 C   0  0  0  0  0
    3.1970   -1.1289    0.0357 C   0  0  0  0  0
   -2.8127    3.2124   -2.9556 C   0  0  0  0  0
   -2.8920    0.1501    0.7335 C   0  0  0  0  0
    1.3962    2.0462    0.5259 C   0  0  0  0  0
    0.8381   -0.3746   -0.1164 C   0  0  0  0  0
    0.3102    0.9580    0.4652 C   0  0  0  0  0
    1.9725   -0.9173    0.6291 N   0  0  0  0  0
    3.4694   -0.8968   -1.1392 O   0  0  0  0  0
   -2.9920    1.6674   -1.1246 O   0  0  0  0  0
    2.8825   -3.6539    1.3012 O   0  0  0  0  0
    5.6443    0.2059    0.5856 O   0  0  0  0  0
   -0.1107    0.7212    1.8158 O   0  0  0  0  0
  1  2  1  0  0  0
  3  8  1  0  0  0
  4  6  1  0  0  0
  5  7  1  0  0  0
  5 11  1  0  0  0
  7 20  1  0  0  0
  8 21  1  0  0  0
  9 19  1  0  0  0
 10 19  1  0  0  0
 11 17  1  0  0  0
 12  9  1  0  0  0
 13 10  1  0  0  0
 14 16  1  0  0  0
 15 16  1  0  0  0
 15 17  1  0  0  0
 16  6  1  0  0  0
 16 22  1  0  0  0
  1  3  2  0  0  0
  2  7  2  0  0  0
  4  9  2  0  0  0
  5  8  2  0  0  0
  6 10  2  0  0  0
 11 18  2  0  0  0
M  END
> <rmsd>
0.485561132

$$$$
ZINC92122870


 22 23  0  0  0  0  0  0  0  0999 V2000
    6.3823   -3.1762    2.1839 C   0  0  0  0  0
    5.1165   -3.7462    2.0474 C   0  0  0  0  0
    6.6298   -1.8987    1.6815 C   0  0  0  0  0
    0.2254    1.5344    3.1496 C   0  0  0  0  0
    4.3458   -1.7611    0.9060 C   0  0  0  0  0
    1.1907    1.7945    2.1478 C   0  0  0  0  0
    4.0982   -3.0386    1.4085 C   0  0  0  0  0
    5.6115   -1.1911    1.0426 C   0  0  0  0  0
    0.7721    1.9782    4.3312 C   0  0  0  0  0
    2.2584    2.3789    2.7885 C   0  0  0  0  0
    3.2617   -1.0076    0.2249 C   0  0  0  0  0
    0.2882    1.9975    5.7187 C   0  0  0  0  0
    3.5612    2.8810    2.3274 C   0  0  0  0  0
   -0.1333    2.2207    0.0323 C   0  0  0  0  0
    0.9854   -0.0486    0.4601 C   0  0  0  0  0
    1.0668    1.4841    0.6524 C   0  0  0  0  0
    2.1474   -0.7571    0.9941 N   0  0  0  0  0
    3.4054   -0.6798   -0.9500 O   0  0  0  0  0
    2.0112    2.4946    4.1197 O   0  0  0  0  0
    2.8686   -3.6143    1.2869 O   0  0  0  0  0
    5.8749    0.0560    0.5599 O   0  0  0  0  0
    2.2370    1.9588   -0.0277 O   0  0  0  0  0
  1  2  1  0  0  0
  3  8  1  0  0  0
  4  6  1  0  0  0
  5  7  1  0  0  0
  5 11  1  0  0  0
  7 20  1  0  0  0
  8 21  1  0  0  0
  9 19  1  0  0  0
 10 19  1  0  0  0
 11 17  1  0  0  0
 12  9  1  0  0  0
 13 10  1  0  0  0
 14 16  1  0  0  0
 15 16  1  0  0  0
 15 17  1  0  0  0
 16  6  1  0  0  0
 16 22  1  0  0  0
  1  3  2  0  0  0
  2  7  2  0  0  0
  4  9  2  0  0  0
  5  8  2  0  0  0
  6 10  2  0  0  0
 11 18  2  0  0  0
M  END
> <rmsd>
0.383981645

$$$$
ZINC89460689


 22 23  0  0  0  0  0  0  0  0999 V2000
    6.3174   -2.9363    2.4264 C   0  0  0  0  0
    5.1113   -3.6079    2.2278 C   0  0  0  0  0
    6.5114   -1.6718    1.8703 C   0  0  0  0  0
    4.2930   -1.7508    0.9168 C   0  0  0  0  0
    0.8730    1.1739    0.1973 C   0  0  0  0  0
    4.0990   -3.0152    1.4730 C   0  0  0  0  0
    5.4992   -1.0790    1.1155 C   0  0  0  0  0
    0.5702    1.9845    1.3076 C   0  0  0  0  0
    1.1797    2.0632   -0.8035 C   0  0  0  0  0
    3.2348   -1.1311    0.1271 C   0  0  0  0  0
    1.3118    1.6545    3.6800 C   0  0  0  0  0
    1.2632    4.5717   -0.9113 C   0  0  0  0  0
    0.5055    1.8276   -3.0720 C   0  0  0  0  0
    0.8647   -0.3253    0.1178 C   0  0  0  0  0
    0.1719    1.5532    2.6594 C   0  0  0  0  0
    0.6751    3.2885    1.0381 N   0  0  0  0  0
    1.0473    3.3040   -0.2531 N   0  0  0  0  0
    2.0146   -0.9080    0.7713 N   0  0  0  0  0
    3.4285   -0.8443   -1.0654 O   0  0  0  0  0
    2.9278   -3.6890    1.2924 O   0  0  0  0  0
    5.7095    0.1574    0.5819 O   0  0  0  0  0
    1.5399    1.8911   -2.0671 O   0  0  0  0  0
  1  2  1  0  0  0
  3  7  1  0  0  0
  4  6  1  0  0  0
  4 10  1  0  0  0
  5  8  1  0  0  0
  6 20  1  0  0  0
  7 21  1  0  0  0
  9 17  1  0  0  0
  9 22  1  0  0  0
 10 18  1  0  0  0
 11 15  1  0  0  0
 12 17  1  0  0  0
 13 22  1  0  0  0
 14  5  1  0  0  0
 14 18  1  0  0  0
 15  8  1  0  0  0
 17 16  1  0  0  0
  1  3  2  0  0  0
  2  6  2  0  0  0
  4  7  2  0  0  0
  5  9  2  0  0  0
  8 16  2  0  0  0
 10 19  2  0  0  0
M  END
> <rmsd>
0.266413301

$$$$
ZINC92122303


 22 23  0  0  0  0  0  0  0  0999 V2000
    6.3969   -3.1612    2.2195 C   0  0  0  0  0
    5.1387   -3.7455    2.0740 C   0  0  0  0  0
    6.6366   -1.8852    1.7094 C   0  0  0  0  0
    0.6503    1.0769    3.1877 C   0  0  0  0  0
    1.8210    2.8599    2.6536 C   0  0  0  0  0
    4.3598   -1.7778    0.9083 C   0  0  0  0  0
    1.1969    1.7726    2.0927 C   0  0  0  0  0
    4.1202   -3.0538    1.4184 C   0  0  0  0  0
    5.6180   -1.1935    1.0538 C   0  0  0  0  0
    3.2753   -1.0412    0.2095 C   0  0  0  0  0
    2.0894    3.6684    5.0102 C   0  0  0  0  0
   -1.2870    2.0386    0.7476 C   0  0  0  0  0
    0.3160    3.4713   -0.5088 C   0  0  0  0  0
    0.9865   -0.1050    0.4121 C   0  0  0  0  0
    1.1186    1.4058    0.6273 C   0  0  0  0  0
    0.9050    1.6722    4.3560 N   0  0  0  0  0
    1.6185    2.7533    3.9982 N   0  0  0  0  0
    2.1662   -0.8063    0.9721 N   0  0  0  0  0
   -0.0293    2.0760   -0.0726 N   0  0  0  0  0
    3.4283   -0.7214   -0.9664 O   0  0  0  0  0
    2.8979   -3.6433    1.2882 O   0  0  0  0  0
    5.8736    0.0525    0.5638 O   0  0  0  0  0
  1  2  1  0  0  0
  3  9  1  0  0  0
  4  7  1  0  0  0
  5 17  1  0  0  0
  6  8  1  0  0  0
  6 10  1  0  0  0
  8 21  1  0  0  0
  9 22  1  0  0  0
 10 18  1  0  0  0
 11 17  1  0  0  0
 12 19  1  0  0  0
 13 19  1  0  0  0
 14 15  1  0  0  0
 14 18  1  0  0  0
 15  7  1  0  0  0
 15 19  1  0  0  0
 17 16  1  0  0  0
  1  3  2  0  0  0
  2  8  2  0  0  0
  4 16  2  0  0  0
  5  7  2  0  0  0
  6  9  2  0  0  0
 10 20  2  0  0  0
M  CHG  1  19   1
M  END
> <rmsd>
0.468600392

$$$$
ZINC92122303


 22 23  0  0  0  0  0  0  0  0999 V2000
    6.3974   -3.1613    2.2191 C   0  0  0  0  0
    5.1392   -3.7457    2.0737 C   0  0  0  0  0
    6.6369   -1.8852    1.7091 C   0  0  0  0  0
    1.8333    2.8868    2.6718 C   0  0  0  0  0
    0.6601    1.0918    3.1587 C   0  0  0  0  0
    4.3601   -1.7780    0.9083 C   0  0  0  0  0
    1.1971    1.7723    2.0932 C   0  0  0  0  0
    4.1206   -3.0540    1.4183 C   0  0  0  0  0
    5.6182   -1.1936    1.0536 C   0  0  0  0  0
    3.2754   -1.0414    0.2096 C   0  0  0  0  0
    0.6504    1.4921    5.6322 C   0  0  0  0  0
   -1.2870    2.0382    0.7484 C   0  0  0  0  0
    0.3158    3.4710   -0.5082 C   0  0  0  0  0
    0.9866   -0.1053    0.4125 C   0  0  0  0  0
    1.1186    1.4055    0.6278 C   0  0  0  0  0
    1.7123    2.9166    4.0017 N   0  0  0  0  0
    0.9939    1.8124    4.2675 N   0  0  0  0  0
    2.1664   -0.8065    0.9723 N   0  0  0  0  0
   -0.0294    2.0756   -0.0720 N   0  0  0  0  0
    3.4283   -0.7215   -0.9664 O   0  0  0  0  0
    2.8983   -3.6435    1.2882 O   0  0  0  0  0
    5.8737    0.0525    0.5637 O   0  0  0  0  0
  1  2  1  0  0  0
  3  9  1  0  0  0
  4  7  1  0  0  0
  5 17  1  0  0  0
  6  8  1  0  0  0
  6 10  1  0  0  0
  8 21  1  0  0  0
  9 22  1  0  0  0
 10 18  1  0  0  0
 11 17  1  0  0  0
 12 19  1  0  0  0
 13 19  1  0  0  0
 14 15  1  0  0  0
 14 18  1  0  0  0
 15  7  1  0  0  0
 15 19  1  0  0  0
 17 16  1  0  0  0
  1  3  2  0  0  0
  2  8  2  0  0  0
  4 16  2  0  0  0
  5  7  2  0  0  0
  6  9  2  0  0  0
 10 20  2  0  0  0
M  CHG  1  19   1
M  END
> <rmsd>
0.46891728

$$$$
ZINC92125245


 22 24  0  0  0  0  0  0  0  0999 V2000
    6.4791   -3.0048    2.1872 C   0  0  0  0  0
    5.2800   -3.7019    2.0403 C   0  0  0  0  0
    6.5965   -1.7067    1.6902 C   0  0  0  0  0
    4.3157   -1.8031    0.8994 C   0  0  0  0  0
    4.1983   -3.1011    1.3965 C   0  0  0  0  0
    5.5149   -1.1059    1.0463 C   0  0  0  0  0
    3.1787   -1.1715    0.2218 C   0  0  0  0  0
    0.4471    3.2873   -0.9074 C   0  0  0  0  0
   -0.3869    2.2300   -1.6160 C   0  0  0  0  0
    1.6577    2.6988   -0.1907 C   0  0  0  0  0
   -1.3580    1.4476   -0.7394 C   0  0  0  0  0
    1.3615    2.0327    1.1489 C   0  0  0  0  0
   -1.0414    1.3030    0.7464 C   0  0  0  0  0
    1.7729   -1.4235    2.3302 C   0  0  0  0  0
    0.8411   -0.3657    0.3287 C   0  0  0  0  0
    1.3159   -0.2252    3.1454 C   0  0  0  0  0
    0.3732    0.8422    1.1633 C   0  0  0  0  0
    1.9972   -1.0118    0.9447 N   0  0  0  0  0
    3.3629   -0.8237   -0.9432 O   0  0  0  0  0
    0.1900    0.4131    2.5419 O   0  0  0  0  0
    3.0355   -3.8003    1.2648 O   0  0  0  0  0
    5.6511    0.1637    0.5691 O   0  0  0  0  0
  1  2  1  0  0  0
  3  6  1  0  0  0
  4  5  1  0  0  0
  4  7  1  0  0  0
  5 21  1  0  0  0
  6 22  1  0  0  0
  7 18  1  0  0  0
  8  9  1  0  0  0
  8 10  1  0  0  0
  9 11  1  0  0  0
 10 12  1  0  0  0
 11 13  1  0  0  0
 12 17  1  0  0  0
 13 17  1  0  0  0
 14 16  1  0  0  0
 14 18  1  0  0  0
 15 17  1  0  0  0
 15 18  1  0  0  0
 16 20  1  0  0  0
 17 20  1  0  0  0
  1  3  2  0  0  0
  2  5  2  0  0  0
  4  6  2  0  0  0
  7 19  2  0  0  0
M  END
> <rmsd>
0.413365781

$$$$
ZINC92125245


 22 24  0  0  0  0  0  0  0  0999 V2000
    6.4185   -3.1267    2.1431 C   0  0  0  0  0
    5.1720   -3.7391    2.0142 C   0  0  0  0  0
    6.6166   -1.8373    1.6493 C   0  0  0  0  0
    4.3214   -1.7726    0.8976 C   0  0  0  0  0
    4.1234   -3.0620    1.3915 C   0  0  0  0  0
    5.5680   -1.1603    1.0266 C   0  0  0  0  0
    3.2192   -1.0609    0.2423 C   0  0  0  0  0
    0.7821    3.5808   -0.8220 C   0  0  0  0  0
   -0.1345    2.5870   -1.5202 C   0  0  0  0  0
    1.9613    2.9068   -0.1287 C   0  0  0  0  0
   -1.1422    1.8686   -0.6301 C   0  0  0  0  0
    1.6428    2.2558    1.2132 C   0  0  0  0  0
   -0.8111    1.6950    0.8494 C   0  0  0  0  0
    1.8354   -1.2266    2.3736 C   0  0  0  0  0
    0.9447   -0.0969    0.3927 C   0  0  0  0  0
    1.4758   -0.0039    3.2013 C   0  0  0  0  0
    0.5753    1.1360    1.2400 C   0  0  0  0  0
    2.0639   -0.8241    0.9861 N   0  0  0  0  0
    3.4072   -0.7207   -0.9243 O   0  0  0  0  0
    0.3864    0.7134    2.6199 O   0  0  0  0  0
    2.9132   -3.6790    1.2772 O   0  0  0  0  0
    5.7831    0.0994    0.5521 O   0  0  0  0  0
  1  2  1  0  0  0
  3  6  1  0  0  0
  4  5  1  0  0  0
  4  7  1  0  0  0
  5 21  1  0  0  0
  6 22  1  0  0  0
  7 18  1  0  0  0
  8  9  1  0  0  0
  8 10  1  0  0  0
  9 11  1  0  0  0
 10 12  1  0  0  0
 11 13  1  0  0  0
 12 17  1  0  0  0
 13 17  1  0  0  0
 14 16  1  0  0  0
 14 18  1  0  0  0
 15 17  1  0  0  0
 15 18  1  0  0  0
 16 20  1  0  0  0
 17 20  1  0  0  0
  1  3  2  0  0  0
  2  5  2  0  0  0
  4  6  2  0  0  0
  7 19  2  0  0  0
M  END
> <rmsd>
0.23077336

$$$$
ZINC00407264


 22 23  0  0  0  0  0  0  0  0999 V2000
    0.5147    2.6648   -0.0135 C   0  0  0  0  0
    1.5253    1.9685    0.6917 C   0  0  0  0  0
    5.0532   -3.7002    2.0571 C   0  0  0  0  0
    6.5749   -1.8611    1.6846 C   0  0  0  0  0
    4.2923   -1.7168    0.9063 C   0  0  0  0  0
    6.3214   -3.1352    2.1923 C   0  0  0  0  0
    4.0386   -2.9910    1.4140 C   0  0  0  0  0
    5.5603   -1.1519    1.0416 C   0  0  0  0  0
   -0.2939    1.7022   -0.5717 C   0  0  0  0  0
    1.2618    0.6302    0.5144 C   0  0  0  0  0
    3.2321   -0.9745    0.2337 C   0  0  0  0  0
   -1.4588    1.8028   -1.3828 C   0  0  0  0  0
   -3.1862    4.8344   -2.5947 C   0  0  0  0  0
    1.9422   -0.6286    0.9937 C   0  0  0  0  0
   -2.9802    3.3421   -2.4457 C   0  0  0  0  0
    3.3647   -0.6202   -0.9537 O   0  0  0  0  0
   -2.1192    0.8359   -1.8378 O   0  0  0  0  0
    0.1545    0.4593   -0.2545 O   0  0  0  0  0
    7.3116   -3.8276    2.8190 O   0  0  0  0  0
    2.8072   -3.5623    1.2911 O   0  0  0  0  0
    5.8301    0.0921    0.5542 O   0  0  0  0  0
   -1.8204    3.1097   -1.6392 O   0  0  0  0  0
  1  2  1  0  0  0
  3  6  1  0  0  0
  4  8  1  0  0  0
  5  7  1  0  0  0
  5 11  1  0  0  0
  6 19  1  0  0  0
  7 20  1  0  0  0
  8 21  1  0  0  0
  9 12  1  0  0  0
  9 18  1  0  0  0
 10 18  1  0  0  0
 12 22  1  0  0  0
 13 15  1  0  0  0
 14 10  1  0  0  0
 14 11  1  0  0  0
 15 22  1  0  0  0
  1  9  2  0  0  0
  2 10  2  0  0  0
  3  7  2  0  0  0
  4  6  2  0  0  0
  5  8  2  0  0  0
 11 16  2  0  0  0
 12 17  2  0  0  0
M  END
> <rmsd>
0.422024697

$$$$
ZINC00407264


 22 23  0  0  0  0  0  0  0  0999 V2000
    0.5147    2.6644   -0.0144 C   0  0  0  0  0
    1.5252    1.9681    0.6910 C   0  0  0  0  0
    5.0527   -3.7006    2.0569 C   0  0  0  0  0
    6.5745   -1.8616    1.6845 C   0  0  0  0  0
    4.2920   -1.7173    0.9060 C   0  0  0  0  0
    6.3209   -3.1358    2.1922 C   0  0  0  0  0
    4.0383   -2.9915    1.4137 C   0  0  0  0  0
    5.5600   -1.1524    1.0414 C   0  0  0  0  0
   -0.2939    1.7019   -0.5726 C   0  0  0  0  0
    1.2617    0.6298    0.5137 C   0  0  0  0  0
    3.2319   -0.9749    0.2332 C   0  0  0  0  0
   -1.4587    1.8025   -1.3838 C   0  0  0  0  0
   -3.5280   -0.9015   -2.8158 C   0  0  0  0  0
    1.9420   -0.6290    0.9932 C   0  0  0  0  0
   -3.1462    0.5401   -2.5556 C   0  0  0  0  0
    3.3647   -0.6208   -0.9542 O   0  0  0  0  0
   -1.9960    2.8727   -1.7630 O   0  0  0  0  0
    0.1544    0.4590   -0.2553 O   0  0  0  0  0
    7.3110   -3.8281    2.8190 O   0  0  0  0  0
    2.8068   -3.5627    1.2907 O   0  0  0  0  0
    5.8300    0.0916    0.5539 O   0  0  0  0  0
   -1.9722    0.5711   -1.7368 O   0  0  0  0  0
  1  2  1  0  0  0
  3  6  1  0  0  0
  4  8  1  0  0  0
  5  7  1  0  0  0
  5 11  1  0  0  0
  6 19  1  0  0  0
  7 20  1  0  0  0
  8 21  1  0  0  0
  9 12  1  0  0  0
  9 18  1  0  0  0
 10 18  1  0  0  0
 12 22  1  0  0  0
 13 15  1  0  0  0
 14 10  1  0  0  0
 14 11  1  0  0  0
 15 22  1  0  0  0
  1  9  2  0  0  0
  2 10  2  0  0  0
  3  7  2  0  0  0
  4  6  2  0  0  0
  5  8  2  0  0  0
 11 16  2  0  0  0
 12 17  2  0  0  0
M  END
> <rmsd>
0.422023803

$$$$
ZINC92120645


 21 22  0  0  0  0  0  0  0  0999 V2000
    6.3423   -2.9578    2.3803 C   0  0  0  0  0
    5.1333   -3.6273    2.1916 C   0  0  0  0  0
    6.5282   -1.6870    1.8359 C   0  0  0  0  0
   -0.1060    1.9388    0.8306 C   0  0  0  0  0
    4.2961   -1.7553    0.9141 C   0  0  0  0  0
    4.1102   -3.0261    1.4585 C   0  0  0  0  0
    5.5052   -1.0858    1.1029 C   0  0  0  0  0
    0.8595    1.1531    0.2369 C   0  0  0  0  0
    1.7263    3.1214   -0.1923 C   0  0  0  0  0
    3.2067   -1.1150    0.1328 C   0  0  0  0  0
    3.8779    3.5446   -1.4323 C   0  0  0  0  0
    3.2107    5.0439    0.4766 C   0  0  0  0  0
    2.0347    5.1902   -1.7090 C   0  0  0  0  0
    0.8562   -0.3222    0.1813 C   0  0  0  0  0
    2.6848    4.2068   -0.7096 C   0  0  0  0  0
    1.9108    1.8294   -0.3506 N   0  0  0  0  0
    2.0171   -0.9118    0.8121 N   0  0  0  0  0
    3.4028   -0.8263   -1.0447 O   0  0  0  0  0
    2.9365   -3.6978    1.2872 O   0  0  0  0  0
    5.7078    0.1568    0.5805 O   0  0  0  0  0
    0.3100    3.5932    0.6540 S   0  0  0  0  0
  1  2  1  0  0  0
  3  7  1  0  0  0
  4 21  1  0  0  0
  5  6  1  0  0  0
  5 10  1  0  0  0
  6 19  1  0  0  0
  7 20  1  0  0  0
  8 16  1  0  0  0
  9 21  1  0  0  0
 10 17  1  0  0  0
 11 15  1  0  0  0
 12 15  1  0  0  0
 13 15  1  0  0  0
 14  8  1  0  0  0
 14 17  1  0  0  0
 15  9  1  0  0  0
  1  3  2  0  0  0
  2  6  2  0  0  0
  4  8  2  0  0  0
  5  7  2  0  0  0
  9 16  2  0  0  0
 10 18  2  0  0  0
M  END
> <rmsd>
0.278999299

$$$$
ZINC92120645


 21 22  0  0  0  0  0  0  0  0999 V2000
    6.3173   -2.9437    2.4188 C   0  0  0  0  0
    5.1086   -3.6115    2.2219 C   0  0  0  0  0
    6.5138   -1.6789    1.8644 C   0  0  0  0  0
    1.1761    1.9959   -0.8875 C   0  0  0  0  0
    4.2928   -1.7496    0.9161 C   0  0  0  0  0
    4.0964   -3.0144    1.4706 C   0  0  0  0  0
    5.5015   -1.0819    1.1131 C   0  0  0  0  0
    0.8736    1.1621    0.1686 C   0  0  0  0  0
    0.6169    3.0883    1.1853 C   0  0  0  0  0
    3.2150   -1.1138    0.1153 C   0  0  0  0  0
   -0.0442    3.4054    3.5953 C   0  0  0  0  0
   -0.8493    5.0273    1.8467 C   0  0  0  0  0
    1.5219    5.0564    2.5936 C   0  0  0  0  0
    0.8665   -0.3136    0.1274 C   0  0  0  0  0
    0.3272    4.1268    2.2817 C   0  0  0  0  0
    0.5532    1.7868    1.3581 N   0  0  0  0  0
    2.0178   -0.9004    0.7781 N   0  0  0  0  0
    3.4263   -0.8372   -1.0625 O   0  0  0  0  0
    2.9228   -3.6844    1.2915 O   0  0  0  0  0
    5.7143    0.1549    0.5811 O   0  0  0  0  0
    1.0557    3.6305   -0.3828 S   0  0  0  0  0
  1  2  1  0  0  0
  3  7  1  0  0  0
  4 21  1  0  0  0
  5  6  1  0  0  0
  5 10  1  0  0  0
  6 19  1  0  0  0
  7 20  1  0  0  0
  8 16  1  0  0  0
  9 21  1  0  0  0
 10 17  1  0  0  0
 11 15  1  0  0  0
 12 15  1  0  0  0
 13 15  1  0  0  0
 14  8  1  0  0  0
 14 17  1  0  0  0
 15  9  1  0  0  0
  1  3  2  0  0  0
  2  6  2  0  0  0
  4  8  2  0  0  0
  5  7  2  0  0  0
  9 16  2  0  0  0
 10 18  2  0  0  0
M  END
> <rmsd>
0.259468913

$$$$
ZINC92120645


 21 22  0  0  0  0  0  0  0  0999 V2000
    6.3488   -2.9684    2.3680 C   0  0  0  0  0
    5.1374   -3.6345    2.1822 C   0  0  0  0  0
    6.5356   -1.6965    1.8266 C   0  0  0  0  0
    0.5902    1.9240    1.3744 C   0  0  0  0  0
    4.2996   -1.7567    0.9136 C   0  0  0  0  0
    4.1128   -3.0286    1.4551 C   0  0  0  0  0
    5.5111   -1.0906    1.0995 C   0  0  0  0  0
    0.8674    1.1620    0.2588 C   0  0  0  0  0
    1.1270    3.1510   -0.6279 C   0  0  0  0  0
    3.2087   -1.1115    0.1386 C   0  0  0  0  0
    1.0157    3.7723   -3.0666 C   0  0  0  0  0
    2.9132    4.6106   -1.6408 C   0  0  0  0  0
    0.6328    5.5693   -1.3915 C   0  0  0  0  0
    0.8603   -0.3132    0.1990 C   0  0  0  0  0
    1.4096    4.2594   -1.6554 C   0  0  0  0  0
    1.1751    1.8637   -0.8904 N   0  0  0  0  0
    2.0222   -0.9074    0.8233 N   0  0  0  0  0
    3.4007   -0.8198   -1.0389 O   0  0  0  0  0
    2.9368   -3.6970    1.2866 O   0  0  0  0  0
    5.7146    0.1529    0.5799 O   0  0  0  0  0
    0.7189    3.5883    0.9805 S   0  0  0  0  0
  1  2  1  0  0  0
  3  7  1  0  0  0
  4 21  1  0  0  0
  5  6  1  0  0  0
  5 10  1  0  0  0
  6 19  1  0  0  0
  7 20  1  0  0  0
  8 16  1  0  0  0
  9 21  1  0  0  0
 10 17  1  0  0  0
 11 15  1  0  0  0
 12 15  1  0  0  0
 13 15  1  0  0  0
 14  8  1  0  0  0
 14 17  1  0  0  0
 15  9  1  0  0  0
  1  3  2  0  0  0
  2  6  2  0  0  0
  4  8  2  0  0  0
  5  7  2  0  0  0
  9 16  2  0  0  0
 10 18  2  0  0  0
M  END
> <rmsd>
0.265788317

$$$$
ZINC92121922


 21 22  0  0  0  0  0  0  0  0999 V2000
    6.3050   -2.9204    2.4456 C   0  0  0  0  0
    5.1021   -3.5964    2.2423 C   0  0  0  0  0
    6.4992   -1.6580    1.8849 C   0  0  0  0  0
    0.4190    2.0422   -0.7947 C   0  0  0  0  0
    4.2872   -1.7477    0.9174 C   0  0  0  0  0
    4.0931   -3.0101    1.4783 C   0  0  0  0  0
    5.4902   -1.0717    1.1208 C   0  0  0  0  0
    0.8779    1.1753    0.1748 C   0  0  0  0  0
    1.3189    3.0686    1.1901 C   0  0  0  0  0
    3.2325   -1.1347    0.1179 C   0  0  0  0  0
   -0.4340   -0.9365    0.6342 C   0  0  0  0  0
    3.2941    3.9414    2.4903 C   0  0  0  0  0
    1.0051    3.9086    3.5460 C   0  0  0  0  0
    0.8602   -0.3357    0.0894 C   0  0  0  0  0
    1.7767    4.0338    2.2132 C   0  0  0  0  0
    1.3947    1.7620    1.3135 N   0  0  0  0  0
    2.0075   -0.9120    0.7530 N   0  0  0  0  0
    3.4331   -0.8530   -1.0747 O   0  0  0  0  0
    2.9250   -3.6880    1.2931 O   0  0  0  0  0
    5.7005    0.1628    0.5827 O   0  0  0  0  0
    0.6367    3.6602   -0.2692 S   0  0  0  0  0
  1  2  1  0  0  0
  3  7  1  0  0  0
  4 21  1  0  0  0
  5  6  1  0  0  0
  5 10  1  0  0  0
  6 19  1  0  0  0
  7 20  1  0  0  0
  8 16  1  0  0  0
  9 21  1  0  0  0
 10 17  1  0  0  0
 11 14  1  0  0  0
 12 15  1  0  0  0
 13 15  1  0  0  0
 14  8  1  0  0  0
 14 17  1  0  0  0
 15  9  1  0  0  0
  1  3  2  0  0  0
  2  6  2  0  0  0
  4  8  2  0  0  0
  5  7  2  0  0  0
  9 16  2  0  0  0
 10 18  2  0  0  0
M  END
> <rmsd>
0.28486678

$$$$
ZINC92123499


 22 23  0  0  0  0  0  0  0  0999 V2000
    6.3954   -3.1787    2.1654 C   0  0  0  0  0
    0.0600    1.4657    3.0046 C   0  0  0  0  0
    5.1311   -3.7527    2.0326 C   0  0  0  0  0
    6.6357   -1.8978    1.6680 C   0  0  0  0  0
    0.1086    1.7701    4.3649 C   0  0  0  0  0
    2.3043    2.7341    4.0706 C   0  0  0  0  0
    4.3473   -1.7649    0.9047 C   0  0  0  0  0
    1.1335    1.7954    2.1772 C   0  0  0  0  0
    4.1071   -3.0458    1.4022 C   0  0  0  0  0
    5.6116   -1.1910    1.0376 C   0  0  0  0  0
    1.2308    2.4044    4.8979 C   0  0  0  0  0
    2.2556    2.4297    2.7102 C   0  0  0  0  0
    3.2569   -1.0122    0.2328 C   0  0  0  0  0
   -0.0621    2.2264    0.0072 C   0  0  0  0  0
    0.9784   -0.0628    0.4841 C   0  0  0  0  0
    1.0770    1.4617    0.6939 C   0  0  0  0  0
    2.1442   -0.7686    1.0081 N   0  0  0  0  0
    3.3934   -0.6784   -0.9412 O   0  0  0  0  0
    2.8788   -3.6254    1.2842 O   0  0  0  0  0
    5.8680    0.0595    0.5596 O   0  0  0  0  0
    1.2771    2.6973    6.2041 F   0  0  0  0  0
    3.2923    2.7503    1.9233 F   0  0  0  0  0
  1  3  1  0  0  0
  2  8  1  0  0  0
  4 10  1  0  0  0
  5 11  1  0  0  0
  6 12  1  0  0  0
  7  9  1  0  0  0
  7 13  1  0  0  0
  9 19  1  0  0  0
 10 20  1  0  0  0
 11 21  1  0  0  0
 12 22  1  0  0  0
 13 17  1  0  0  0
 14 16  1  0  0  0
 15 16  1  0  0  0
 15 17  1  0  0  0
 16  8  1  0  0  0
  1  4  2  0  0  0
  2  5  2  0  0  0
  3  9  2  0  0  0
  6 11  2  0  0  0
  7 10  2  0  0  0
  8 12  2  0  0  0
 13 18  2  0  0  0
M  END
> <rmsd>
0.361096591

$$$$
ZINC92123499


 22 23  0  0  0  0  0  0  0  0999 V2000
    6.3954   -3.1789    2.1654 C   0  0  0  0  0
    2.2586    2.4296    2.7039 C   0  0  0  0  0
    5.1311   -3.7528    2.0326 C   0  0  0  0  0
    6.6357   -1.8980    1.6679 C   0  0  0  0  0
    2.3135    2.7370    4.0633 C   0  0  0  0  0
    0.1184    1.7756    4.3695 C   0  0  0  0  0
    4.3473   -1.7651    0.9047 C   0  0  0  0  0
    1.1335    1.7953    2.1772 C   0  0  0  0  0
    4.1070   -3.0460    1.4022 C   0  0  0  0  0
    5.6116   -1.1912    1.0376 C   0  0  0  0  0
    1.2434    2.4100    4.8961 C   0  0  0  0  0
    0.0634    1.4682    3.0100 C   0  0  0  0  0
    3.2568   -1.0124    0.2327 C   0  0  0  0  0
   -0.0622    2.2262    0.0072 C   0  0  0  0  0
    0.9784   -0.0629    0.4840 C   0  0  0  0  0
    1.0770    1.4615    0.6938 C   0  0  0  0  0
    2.1442   -0.7687    1.0081 N   0  0  0  0  0
    3.3934   -0.6786   -0.9413 O   0  0  0  0  0
    2.8788   -3.6256    1.2842 O   0  0  0  0  0
    5.8680    0.0593    0.5596 O   0  0  0  0  0
    1.2966    2.7046    6.2017 F   0  0  0  0  0
   -1.0221    0.8587    2.5130 F   0  0  0  0  0
  1  3  1  0  0  0
  2  8  1  0  0  0
  4 10  1  0  0  0
  5 11  1  0  0  0
  6 12  1  0  0  0
  7  9  1  0  0  0
  7 13  1  0  0  0
  9 19  1  0  0  0
 10 20  1  0  0  0
 11 21  1  0  0  0
 12 22  1  0  0  0
 13 17  1  0  0  0
 14 16  1  0  0  0
 15 16  1  0  0  0
 15 17  1  0  0  0
 16  8  1  0  0  0
  1  4  2  0  0  0
  2  5  2  0  0  0
  3  9  2  0  0  0
  6 11  2  0  0  0
  7 10  2  0  0  0
  8 12  2  0  0  0
 13 18  2  0  0  0
M  END
> <rmsd>
0.361096501

$$$$
ZINC92123510


 22 23  0  0  0  0  0  0  0  0999 V2000
    6.3956   -3.1788    2.1656 C   0  0  0  0  0
    0.0623    1.4673    3.0084 C   0  0  0  0  0
    5.1312   -3.7528    2.0328 C   0  0  0  0  0
    6.6359   -1.8979    1.6682 C   0  0  0  0  0
    0.1155    1.7728    4.3683 C   0  0  0  0  0
    2.2581    2.4290    2.7065 C   0  0  0  0  0
    4.3475   -1.7651    0.9049 C   0  0  0  0  0
    1.1337    1.7953    2.1774 C   0  0  0  0  0
    4.1072   -3.0460    1.4024 C   0  0  0  0  0
    5.6118   -1.1911    1.0379 C   0  0  0  0  0
    1.2398    2.4066    4.8973 C   0  0  0  0  0
    2.3112    2.7346    4.0664 C   0  0  0  0  0
    3.2570   -1.0124    0.2330 C   0  0  0  0  0
   -0.0620    2.2263    0.0075 C   0  0  0  0  0
    0.9786   -0.0629    0.4843 C   0  0  0  0  0
    1.0772    1.4615    0.6941 C   0  0  0  0  0
    2.1444   -0.7687    1.0084 N   0  0  0  0  0
    3.3936   -0.6785   -0.9410 O   0  0  0  0  0
    2.8789   -3.6255    1.2844 O   0  0  0  0  0
    5.8681    0.0593    0.5598 O   0  0  0  0  0
    1.2900    2.7007    6.2030 F   0  0  0  0  0
    3.3914    3.3419    4.5744 F   0  0  0  0  0
  1  3  1  0  0  0
  2  8  1  0  0  0
  4 10  1  0  0  0
  5 11  1  0  0  0
  6 12  1  0  0  0
  7  9  1  0  0  0
  7 13  1  0  0  0
  9 19  1  0  0  0
 10 20  1  0  0  0
 11 21  1  0  0  0
 12 22  1  0  0  0
 13 17  1  0  0  0
 14 16  1  0  0  0
 15 16  1  0  0  0
 15 17  1  0  0  0
 16  8  1  0  0  0
  1  4  2  0  0  0
  2  5  2  0  0  0
  3  9  2  0  0  0
  6  8  2  0  0  0
  7 10  2  0  0  0
 11 12  2  0  0  0
 13 18  2  0  0  0
M  END
> <rmsd>
0.361096561

$$$$
ZINC92123510


 22 23  0  0  0  0  0  0  0  0999 V2000
    6.3952   -3.1782    2.1649 C   0  0  0  0  0
    2.2563    2.4301    2.7081 C   0  0  0  0  0
    5.1308   -3.7522    2.0322 C   0  0  0  0  0
    6.6354   -1.8973    1.6675 C   0  0  0  0  0
    2.3068    2.7363    4.0679 C   0  0  0  0  0
    0.0605    1.4675    3.0064 C   0  0  0  0  0
    4.3469   -1.7644    0.9044 C   0  0  0  0  0
    1.1331    1.7958    2.1773 C   0  0  0  0  0
    4.1067   -3.0454    1.4019 C   0  0  0  0  0
    5.6112   -1.1904    1.0373 C   0  0  0  0  0
    1.2343    2.4081    4.8971 C   0  0  0  0  0
    0.1111    1.7737    4.3663 C   0  0  0  0  0
    3.2564   -1.0117    0.2326 C   0  0  0  0  0
   -0.0627    2.2268    0.0074 C   0  0  0  0  0
    0.9779   -0.0623    0.4841 C   0  0  0  0  0
    1.0765    1.4621    0.6939 C   0  0  0  0  0
    2.1438   -0.7681    1.0080 N   0  0  0  0  0
    3.3929   -0.6778   -0.9414 O   0  0  0  0  0
    2.8785   -3.6250    1.2839 O   0  0  0  0  0
    5.8675    0.0600    0.5593 O   0  0  0  0  0
    1.2836    2.7014    6.2030 F   0  0  0  0  0
   -0.9195    1.4595    5.1620 F   0  0  0  0  0
  1  3  1  0  0  0
  2  8  1  0  0  0
  4 10  1  0  0  0
  5 11  1  0  0  0
  6 12  1  0  0  0
  7  9  1  0  0  0
  7 13  1  0  0  0
  9 19  1  0  0  0
 10 20  1  0  0  0
 11 21  1  0  0  0
 12 22  1  0  0  0
 13 17  1  0  0  0
 14 16  1  0  0  0
 15 16  1  0  0  0
 15 17  1  0  0  0
 16  8  1  0  0  0
  1  4  2  0  0  0
  2  5  2  0  0  0
  3  9  2  0  0  0
  6  8  2  0  0  0
  7 10  2  0  0  0
 11 12  2  0  0  0
 13 18  2  0  0  0
M  END
> <rmsd>
0.361248225

$$$$
ZINC92122445


 22 23  0  0  0  0  0  0  0  0999 V2000
    6.3963   -3.2011    2.1711 C   0  0  0  0  0
    5.1273   -3.7644    2.0383 C   0  0  0  0  0
    6.6479   -1.9231    1.6715 C   0  0  0  0  0
    4.3614   -1.7725    0.9059 C   0  0  0  0  0
    4.1098   -3.0502    1.4056 C   0  0  0  0  0
    5.6304   -1.2089    1.0389 C   0  0  0  0  0
    3.2780   -1.0117    0.2315 C   0  0  0  0  0
   -0.8899    2.3465   -0.2702 C   0  0  0  0  0
   -0.6612    1.7462    1.1144 C   0  0  0  0  0
    0.3509    3.0457   -0.8120 C   0  0  0  0  0
    0.7709    1.2343    1.2971 C   0  0  0  0  0
    1.8033    2.3278    0.9246 C   0  0  0  0  0
    3.4874    3.9846    1.7672 C   0  0  0  0  0
    3.2369    1.7637    2.9036 C   0  0  0  0  0
    1.4317    3.4908    3.1154 C   0  0  0  0  0
    1.0079   -0.0415    0.4792 C   0  0  0  0  0
    2.4854    2.8880    2.1695 C   0  0  0  0  0
    2.1382   -0.7390    0.9925 N   0  0  0  0  0
    3.4184   -0.6814   -0.9431 O   0  0  0  0  0
    1.2017    3.4459    0.2553 O   0  0  0  0  0
    2.8768   -3.6196    1.2876 O   0  0  0  0  0
    5.8978    0.0384    0.5587 O   0  0  0  0  0
  1  2  1  0  0  0
  3  6  1  0  0  0
  4  5  1  0  0  0
  4  7  1  0  0  0
  5 21  1  0  0  0
  6 22  1  0  0  0
  7 18  1  0  0  0
  8  9  1  0  0  0
  8 10  1  0  0  0
  9 11  1  0  0  0
 10 20  1  0  0  0
 11 12  1  0  0  0
 11 16  1  0  0  0
 12 17  1  0  0  0
 12 20  1  0  0  0
 13 17  1  0  0  0
 14 17  1  0  0  0
 15 17  1  0  0  0
 16 18  1  0  0  0
  1  3  2  0  0  0
  2  5  2  0  0  0
  4  6  2  0  0  0
  7 19  2  0  0  0
M  END
> <rmsd>
0.490307868

$$$$
ZINC92125280


 22 23  0  0  0  0  0  0  0  0999 V2000
    6.2543   -2.9318    2.4215 C   0  0  0  0  0
    5.0338   -3.5781    2.2256 C   0  0  0  0  0
    6.4739   -1.6722    1.8641 C   0  0  0  0  0
    4.2525   -1.7051    0.9145 C   0  0  0  0  0
    4.0329   -2.9647    1.4721 C   0  0  0  0  0
    5.4730   -1.0589    1.1105 C   0  0  0  0  0
    3.1868   -1.0520    0.1114 C   0  0  0  0  0
   -2.3303    2.8486   -1.5716 C   0  0  0  0  0
   -1.4041    0.5600   -2.0169 C   0  0  0  0  0
   -2.8660    2.8322   -2.9982 C   0  0  0  0  0
   -1.9920    0.6716   -3.4184 C   0  0  0  0  0
   -1.0954    1.9490   -1.4468 C   0  0  0  0  0
    1.2743    1.7861    1.6230 C   0  0  0  0  0
    1.7777    1.9547   -0.8222 C   0  0  0  0  0
   -0.6252    1.8573    0.0021 C   0  0  0  0  0
    0.8533   -0.2091    0.1202 C   0  0  0  0  0
    0.8242    1.3348    0.2164 C   0  0  0  0  0
    1.9872   -0.8119    0.7695 N   0  0  0  0  0
    3.4038   -0.7822   -1.0670 O   0  0  0  0  0
   -3.1553    1.4983   -3.4148 O   0  0  0  0  0
    2.8475   -3.6139    1.2941 O   0  0  0  0  0
    5.7084    0.1725    0.5755 O   0  0  0  0  0
  1  2  1  0  0  0
  3  6  1  0  0  0
  4  5  1  0  0  0
  4  7  1  0  0  0
  5 21  1  0  0  0
  6 22  1  0  0  0
  7 18  1  0  0  0
  8 10  1  0  0  0
  8 12  1  0  0  0
  9 11  1  0  0  0
  9 12  1  0  0  0
 10 20  1  0  0  0
 11 20  1  0  0  0
 12 15  1  0  0  0
 13 17  1  0  0  0
 14 17  1  0  0  0
 15 17  1  0  0  0
 16 17  1  0  0  0
 16 18  1  0  0  0
  1  3  2  0  0  0
  2  5  2  0  0  0
  4  6  2  0  0  0
  7 19  2  0  0  0
M  END
> <rmsd>
0.478354871

$$$$
ZINC92122446


 22 23  0  0  0  0  0  0  0  0999 V2000
    6.4475   -3.0081    2.2260 C   0  0  0  0  0
    5.2404   -3.6891    2.0690 C   0  0  0  0  0
    6.5891   -1.7146    1.7233 C   0  0  0  0  0
    4.3164   -1.7835    0.9065 C   0  0  0  0  0
    4.1749   -3.0769    1.4092 C   0  0  0  0  0
    5.5236   -1.1024    1.0635 C   0  0  0  0  0
    3.1818   -1.1314    0.2032 C   0  0  0  0  0
    1.7104    2.5754   -0.2056 C   0  0  0  0  0
    1.5799    1.9084    1.1612 C   0  0  0  0  0
    0.3645    2.7429   -0.9005 C   0  0  0  0  0
    0.4513    0.8736    1.1978 C   0  0  0  0  0
   -0.8774    1.4824    0.6835 C   0  0  0  0  0
   -2.1893    0.3661    2.5064 C   0  0  0  0  0
   -3.1580    2.3320    1.2886 C   0  0  0  0  0
   -1.2392    2.6580    2.8691 C   0  0  0  0  0
    0.8256   -0.3780    0.3942 C   0  0  0  0  0
   -1.8596    1.7081    1.8294 C   0  0  0  0  0
    2.0044   -0.9634    0.9370 N   0  0  0  0  0
    3.3170   -0.7948   -0.9703 O   0  0  0  0  0
   -0.6895    2.7587    0.0547 O   0  0  0  0  0
    3.0039   -3.7604    1.2678 O   0  0  0  0  0
    5.6831    0.1624    0.5808 O   0  0  0  0  0
  1  2  1  0  0  0
  3  6  1  0  0  0
  4  5  1  0  0  0
  4  7  1  0  0  0
  5 21  1  0  0  0
  6 22  1  0  0  0
  7 18  1  0  0  0
  8  9  1  0  0  0
  8 10  1  0  0  0
  9 11  1  0  0  0
 10 20  1  0  0  0
 11 12  1  0  0  0
 11 16  1  0  0  0
 12 17  1  0  0  0
 12 20  1  0  0  0
 13 17  1  0  0  0
 14 17  1  0  0  0
 15 17  1  0  0  0
 16 18  1  0  0  0
  1  3  2  0  0  0
  2  5  2  0  0  0
  4  6  2  0  0  0
  7 19  2  0  0  0
M  END
> <rmsd>
0.391679049

$$$$
ZINC92122448


 22 23  0  0  0  0  0  0  0  0999 V2000
    6.4422   -2.9891    2.2581 C   0  0  0  0  0
    5.2411   -3.6789    2.0936 C   0  0  0  0  0
    6.5808   -1.6982    1.7479 C   0  0  0  0  0
    4.3170   -1.7869    0.9087 C   0  0  0  0  0
    4.1785   -3.0777    1.4189 C   0  0  0  0  0
    5.5182   -1.0972    1.0732 C   0  0  0  0  0
    3.1856   -1.1468    0.1895 C   0  0  0  0  0
    1.6697    2.5675   -0.2554 C   0  0  0  0  0
    1.5755    1.8799    1.1041 C   0  0  0  0  0
    0.3085    3.0876   -0.6963 C   0  0  0  0  0
    0.4372    0.8470    1.1462 C   0  0  0  0  0
   -0.8605    1.5102    0.6394 C   0  0  0  0  0
   -3.3570    1.3377    0.7956 C   0  0  0  0  0
   -1.9145   -0.5111    1.6829 C   0  0  0  0  0
   -2.0949   -0.1389   -0.7900 C   0  0  0  0  0
    0.8229   -0.4070    0.3515 C   0  0  0  0  0
   -2.0479    0.5566    0.5825 C   0  0  0  0  0
    1.9983   -0.9805    0.9094 N   0  0  0  0  0
    3.3306   -0.8174   -0.9848 O   0  0  0  0  0
   -0.6703    2.0493   -0.6744 O   0  0  0  0  0
    3.0133   -3.7695    1.2704 O   0  0  0  0  0
    5.6749    0.1652    0.5836 O   0  0  0  0  0
  1  2  1  0  0  0
  3  6  1  0  0  0
  4  5  1  0  0  0
  4  7  1  0  0  0
  5 21  1  0  0  0
  6 22  1  0  0  0
  7 18  1  0  0  0
  8  9  1  0  0  0
  8 10  1  0  0  0
  9 11  1  0  0  0
 10 20  1  0  0  0
 11 12  1  0  0  0
 11 16  1  0  0  0
 12 17  1  0  0  0
 12 20  1  0  0  0
 13 17  1  0  0  0
 14 17  1  0  0  0
 15 17  1  0  0  0
 16 18  1  0  0  0
  1  3  2  0  0  0
  2  5  2  0  0  0
  4  6  2  0  0  0
  7 19  2  0  0  0
M  END
> <rmsd>
0.389207482

$$$$
ZINC92124202


 21 23  0  0  0  0  0  0  0  0999 V2000
    6.4425   -3.3711    1.7685 C   0  0  0  0  0
    5.1429   -3.8765    1.7325 C   0  0  0  0  0
    6.6932   -2.0618    1.3575 C   0  0  0  0  0
    4.3448   -1.7637    0.8746 C   0  0  0  0  0
    4.0941   -3.0729    1.2856 C   0  0  0  0  0
    5.6444   -1.2582    0.9106 C   0  0  0  0  0
    3.2413   -0.9180    0.4036 C   0  0  0  0  0
   -0.3590    2.2535   -1.6304 C   0  0  0  0  0
    1.0947    2.1116   -1.1937 C   0  0  0  0  0
   -1.2514    1.1995   -0.9851 C   0  0  0  0  0
    1.2315    2.1122    0.3305 C   0  0  0  0  0
   -1.1132    1.1997    0.5389 C   0  0  0  0  0
    2.2981   -0.5993    2.7462 C   0  0  0  0  0
    0.8458   -0.4025    0.7508 C   0  0  0  0  0
    2.0256    0.8021    3.2692 C   0  0  0  0  0
    0.3508    1.0411    1.0149 C   0  0  0  0  0
    2.1867   -0.6559    1.2846 N   0  0  0  0  0
    3.3411   -0.4905   -0.7455 O   0  0  0  0  0
    2.8317   -3.5869    1.2597 O   0  0  0  0  0
    5.9116    0.0185    0.5145 O   0  0  0  0  0
    0.3416    1.3469    2.8447 S   0  0  0  0  0
  1  2  1  0  0  0
  3  6  1  0  0  0
  4  5  1  0  0  0
  4  7  1  0  0  0
  5 19  1  0  0  0
  6 20  1  0  0  0
  7 17  1  0  0  0
  8  9  1  0  0  0
  8 10  1  0  0  0
  9 11  1  0  0  0
 10 12  1  0  0  0
 11 16  1  0  0  0
 12 16  1  0  0  0
 13 15  1  0  0  0
 13 17  1  0  0  0
 14 16  1  0  0  0
 14 17  1  0  0  0
 15 21  1  0  0  0
 16 21  1  0  0  0
  1  3  2  0  0  0
  2  5  2  0  0  0
  4  6  2  0  0  0
  7 18  2  0  0  0
M  END
> <rmsd>
0.524897337

$$$$
ZINC92125810


 22 23  0  0  0  0  0  0  0  0999 V2000
    6.4597   -3.0572    2.1986 C   0  0  0  0  0
    5.2406   -3.7183    2.0497 C   0  0  0  0  0
    6.6169   -1.7636    1.7011 C   0  0  0  0  0
    4.3358   -1.7924    0.9054 C   0  0  0  0  0
    4.1786   -3.0860    1.4031 C   0  0  0  0  0
    5.5550   -1.1312    1.0544 C   0  0  0  0  0
    3.2052   -1.1189    0.2162 C   0  0  0  0  0
    1.7762    2.6841   -0.1060 C   0  0  0  0  0
    0.4492    3.2689   -0.5725 C   0  0  0  0  0
    1.6292    1.9712    1.2344 C   0  0  0  0  0
   -0.6511    2.2200   -0.6110 C   0  0  0  0  0
    0.5166    0.9193    1.2433 C   0  0  0  0  0
   -3.5505    0.8453    1.7640 C   0  0  0  0  0
   -3.7523    3.2173    2.5649 C   0  0  0  0  0
    0.8629   -0.3295    0.4333 C   0  0  0  0  0
   -1.4988    2.3529    1.7545 C   0  0  0  0  0
   -3.0225    2.2723    1.6089 C   0  0  0  0  0
    2.0377   -0.9365    0.9620 N   0  0  0  0  0
   -0.7828    1.5175    0.7219 N   0  0  0  0  0
    3.3346   -0.7785   -0.9568 O   0  0  0  0  0
    2.9957   -3.7502    1.2694 O   0  0  0  0  0
    5.7300    0.1333    0.5766 O   0  0  0  0  0
  1  2  1  0  0  0
  3  6  1  0  0  0
  4  5  1  0  0  0
  4  7  1  0  0  0
  5 21  1  0  0  0
  6 22  1  0  0  0
  7 18  1  0  0  0
  8  9  1  0  0  0
  8 10  1  0  0  0
  9 11  1  0  0  0
 10 12  1  0  0  0
 11 19  1  0  0  0
 12 15  1  0  0  0
 12 19  1  0  0  0
 13 17  1  0  0  0
 14 17  1  0  0  0
 15 18  1  0  0  0
 16 17  1  0  0  0
 16 19  1  0  0  0
  1  3  2  0  0  0
  2  5  2  0  0  0
  4  6  2  0  0  0
  7 20  2  0  0  0
M  CHG  1  19   1
M  END
> <rmsd>
0.290541291

$$$$
ZINC92125811


 22 23  0  0  0  0  0  0  0  0999 V2000
    6.4614   -3.1098    2.1669 C   0  0  0  0  0
    5.2275   -3.7451    2.0277 C   0  0  0  0  0
    6.6396   -1.8167    1.6753 C   0  0  0  0  0
    4.3499   -1.7942    0.9047 C   0  0  0  0  0
    4.1718   -3.0873    1.3965 C   0  0  0  0  0
    5.5839   -1.1589    1.0441 C   0  0  0  0  0
    3.2258   -1.0936    0.2319 C   0  0  0  0  0
   -0.4319    2.4690   -0.5149 C   0  0  0  0  0
    0.7863    3.3818   -0.4537 C   0  0  0  0  0
   -0.6499    1.7428    0.8084 C   0  0  0  0  0
    2.0338    2.6339   -0.0103 C   0  0  0  0  0
    0.5909    0.9927    1.3004 C   0  0  0  0  0
    3.4944    1.3932    3.7626 C   0  0  0  0  0
    2.0411    3.0095    5.0213 C   0  0  0  0  0
    0.9027   -0.2580    0.4794 C   0  0  0  0  0
    1.8329    2.8428    2.4892 C   0  0  0  0  0
    2.1386    2.1004    3.7950 C   0  0  0  0  0
    2.0706   -0.8919    0.9916 N   0  0  0  0  0
    1.8027    1.9147    1.2999 N   0  0  0  0  0
    3.3494   -0.7488   -0.9404 O   0  0  0  0  0
    2.9741   -3.7264    1.2720 O   0  0  0  0  0
    5.7796    0.1046    0.5717 O   0  0  0  0  0
  1  2  1  0  0  0
  3  6  1  0  0  0
  4  5  1  0  0  0
  4  7  1  0  0  0
  5 21  1  0  0  0
  6 22  1  0  0  0
  7 18  1  0  0  0
  8  9  1  0  0  0
  8 10  1  0  0  0
  9 11  1  0  0  0
 10 12  1  0  0  0
 11 19  1  0  0  0
 12 15  1  0  0  0
 12 19  1  0  0  0
 13 17  1  0  0  0
 14 17  1  0  0  0
 15 18  1  0  0  0
 16 17  1  0  0  0
 16 19  1  0  0  0
  1  3  2  0  0  0
  2  5  2  0  0  0
  4  6  2  0  0  0
  7 20  2  0  0  0
M  CHG  1  19   1
M  END
> <rmsd>
0.276683241

$$$$
ZINC92121423


 21 22  0  0  0  0  0  0  0  0999 V2000
    6.3400   -2.9343    2.4187 C   0  0  0  0  0
    1.1844    1.8772   -0.9189 C   0  0  0  0  0
    5.1398   -3.6169    2.2207 C   0  0  0  0  0
    6.5208   -1.6666    1.8657 C   0  0  0  0  0
    1.1831    3.2707   -0.8584 C   0  0  0  0  0
    0.5179    3.1695    1.4621 C   0  0  0  0  0
    4.3013   -1.7642    0.9163 C   0  0  0  0  0
    0.8524    1.1297    0.2111 C   0  0  0  0  0
    4.1205   -3.0318    1.4694 C   0  0  0  0  0
    5.5015   -1.0815    1.1144 C   0  0  0  0  0
    0.5191    1.7759    1.4016 C   0  0  0  0  0
    0.8499    3.9169    0.3320 C   0  0  0  0  0
    3.2359   -1.1524    0.1301 C   0  0  0  0  0
   -0.1342    1.8018    3.6881 C   0  0  0  0  0
    0.8581   -0.3693    0.1276 C   0  0  0  0  0
    2.0148   -0.9428    0.7773 N   0  0  0  0  0
    3.4245   -0.8607   -1.0619 O   0  0  0  0  0
    2.9554   -3.7163    1.2892 O   0  0  0  0  0
    5.6990    0.1584    0.5838 O   0  0  0  0  0
    0.1932    1.0607    2.5145 O   0  0  0  0  0
    0.8505    5.6360    0.4059 Cl  0  0  0  0  0
  1  3  1  0  0  0
  2  8  1  0  0  0
  4 10  1  0  0  0
  5 12  1  0  0  0
  6 11  1  0  0  0
  7  9  1  0  0  0
  7 13  1  0  0  0
  9 18  1  0  0  0
 10 19  1  0  0  0
 11 20  1  0  0  0
 12 21  1  0  0  0
 13 16  1  0  0  0
 14 20  1  0  0  0
 15  8  1  0  0  0
 15 16  1  0  0  0
  1  4  2  0  0  0
  2  5  2  0  0  0
  3  9  2  0  0  0
  6 12  2  0  0  0
  7 10  2  0  0  0
  8 11  2  0  0  0
 13 17  2  0  0  0
M  END
> <rmsd>
0.284496874

$$$$
ZINC92121423


 21 22  0  0  0  0  0  0  0  0999 V2000
    6.3337   -2.9291    2.4280 C   0  0  0  0  0
    0.5124    1.7478    1.3972 C   0  0  0  0  0
    5.1342   -3.6121    2.2278 C   0  0  0  0  0
    6.5164   -1.6627    1.8725 C   0  0  0  0  0
    0.5028    3.1395    1.4886 C   0  0  0  0  0
    1.1749    3.2962   -0.8269 C   0  0  0  0  0
    4.2999   -1.7624    0.9165 C   0  0  0  0  0
    0.8533    1.1301    0.1938 C   0  0  0  0  0
    4.1172   -3.0287    1.4720 C   0  0  0  0  0
    5.4994   -1.0794    1.1167 C   0  0  0  0  0
    1.1845    1.9043   -0.9182 C   0  0  0  0  0
    0.8340    3.9138    0.3766 C   0  0  0  0  0
    3.2368   -1.1525    0.1256 C   0  0  0  0  0
    1.8436    2.1837   -3.1861 C   0  0  0  0  0
    0.8592   -0.3691    0.1139 C   0  0  0  0  0
    2.0138   -0.9412    0.7685 N   0  0  0  0  0
    3.4291   -0.8636   -1.0665 O   0  0  0  0  0
    2.9526   -3.7135    1.2900 O   0  0  0  0  0
    5.6987    0.1592    0.5837 O   0  0  0  0  0
    1.5190    1.3168   -2.1011 O   0  0  0  0  0
    0.8201    5.6307    0.4900 Cl  0  0  0  0  0
  1  3  1  0  0  0
  2  8  1  0  0  0
  4 10  1  0  0  0
  5 12  1  0  0  0
  6 11  1  0  0  0
  7  9  1  0  0  0
  7 13  1  0  0  0
  9 18  1  0  0  0
 10 19  1  0  0  0
 11 20  1  0  0  0
 12 21  1  0  0  0
 13 16  1  0  0  0
 14 20  1  0  0  0
 15  8  1  0  0  0
 15 16  1  0  0  0
  1  4  2  0  0  0
  2  5  2  0  0  0
  3  9  2  0  0  0
  6 12  2  0  0  0
  7 10  2  0  0  0
  8 11  2  0  0  0
 13 17  2  0  0  0
M  END
> <rmsd>
0.28379786

$$$$
ZINC92108552


 21 22  0  0  0  0  0  0  0  0999 V2000
    6.3400   -2.9336    2.4189 C   0  0  0  0  0
    5.1400   -3.6163    2.2209 C   0  0  0  0  0
    6.5207   -1.6659    1.8657 C   0  0  0  0  0
    0.5227    3.1693    1.4632 C   0  0  0  0  0
    0.8547    3.9168    0.3333 C   0  0  0  0  0
    1.1840    1.8772   -0.9192 C   0  0  0  0  0
    4.3013   -1.7639    0.9163 C   0  0  0  0  0
    0.8521    1.1297    0.2107 C   0  0  0  0  0
    4.1206   -3.0315    1.4695 C   0  0  0  0  0
    5.5014   -1.0811    1.1143 C   0  0  0  0  0
    0.5214    1.7758    1.4020 C   0  0  0  0  0
    1.1853    3.2707   -0.8579 C   0  0  0  0  0
    3.2358   -1.1523    0.1300 C   0  0  0  0  0
   -0.1296    1.8017    3.6892 C   0  0  0  0  0
    0.8579   -0.3694    0.1274 C   0  0  0  0  0
    2.0147   -0.9427    0.7771 N   0  0  0  0  0
    3.4243   -0.8607   -1.0620 O   0  0  0  0  0
    2.9556   -3.7161    1.2894 O   0  0  0  0  0
    5.6988    0.1588    0.5836 O   0  0  0  0  0
    0.1950    1.0606    2.5147 O   0  0  0  0  0
    1.5950    4.1922   -2.2522 Cl  0  0  0  0  0
  1  2  1  0  0  0
  3 10  1  0  0  0
  4 11  1  0  0  0
  5 12  1  0  0  0
  6  8  1  0  0  0
  7  9  1  0  0  0
  7 13  1  0  0  0
  9 18  1  0  0  0
 10 19  1  0  0  0
 11 20  1  0  0  0
 12 21  1  0  0  0
 13 16  1  0  0  0
 14 20  1  0  0  0
 15  8  1  0  0  0
 15 16  1  0  0  0
  1  3  2  0  0  0
  2  9  2  0  0  0
  4  5  2  0  0  0
  6 12  2  0  0  0
  7 10  2  0  0  0
  8 11  2  0  0  0
 13 17  2  0  0  0
M  END
> <rmsd>
0.284980774

$$$$
ZINC92108552


 21 22  0  0  0  0  0  0  0  0999 V2000
    6.3339   -2.9293    2.4283 C   0  0  0  0  0
    5.1342   -3.6121    2.2283 C   0  0  0  0  0
    6.5167   -1.6630    1.8727 C   0  0  0  0  0
    1.1706    3.2963   -0.8288 C   0  0  0  0  0
    0.8298    3.9142    0.3743 C   0  0  0  0  0
    0.5132    1.7484    1.3970 C   0  0  0  0  0
    4.3001   -1.7625    0.9167 C   0  0  0  0  0
    0.8540    1.1304    0.1938 C   0  0  0  0  0
    4.1173   -3.0287    1.4724 C   0  0  0  0  0
    5.4998   -1.0796    1.1168 C   0  0  0  0  0
    1.1826    1.9044   -0.9191 C   0  0  0  0  0
    0.5011    3.1403    1.4873 C   0  0  0  0  0
    3.2372   -1.1525    0.1258 C   0  0  0  0  0
    1.8393    2.1831   -3.1878 C   0  0  0  0  0
    0.8596   -0.3688    0.1141 C   0  0  0  0  0
    2.0142   -0.9410    0.7687 N   0  0  0  0  0
    3.4295   -0.8638   -1.0663 O   0  0  0  0  0
    2.9527   -3.7134    1.2904 O   0  0  0  0  0
    5.6993    0.1590    0.5837 O   0  0  0  0  0
    1.5175    1.3166   -2.1018 O   0  0  0  0  0
    0.0806    3.9020    2.9719 Cl  0  0  0  0  0
  1  2  1  0  0  0
  3 10  1  0  0  0
  4 11  1  0  0  0
  5 12  1  0  0  0
  6  8  1  0  0  0
  7  9  1  0  0  0
  7 13  1  0  0  0
  9 18  1  0  0  0
 10 19  1  0  0  0
 11 20  1  0  0  0
 12 21  1  0  0  0
 13 16  1  0  0  0
 14 20  1  0  0  0
 15  8  1  0  0  0
 15 16  1  0  0  0
  1  3  2  0  0  0
  2  9  2  0  0  0
  4  5  2  0  0  0
  6 12  2  0  0  0
  7 10  2  0  0  0
  8 11  2  0  0  0
 13 17  2  0  0  0
M  END
> <rmsd>
0.283405125

$$$$
ZINC92122822


 22 23  0  0  0  0  0  0  0  0999 V2000
    6.5870   -3.1365    2.0213 C   0  0  0  0  0
    3.7060    3.7463    1.4033 C   0  0  0  0  0
    5.3677   -3.8047    1.9092 C   0  0  0  0  0
    6.7056   -1.8217    1.5708 C   0  0  0  0  0
    2.6228    3.8394    0.5296 C   0  0  0  0  0
    3.7709    2.7011    2.3248 C   0  0  0  0  0
    4.3859   -1.8433    0.8961 C   0  0  0  0  0
    1.6692    1.8423    1.4988 C   0  0  0  0  0
    4.2672   -3.1582    1.3466 C   0  0  0  0  0
    5.6052   -1.1751    1.0082 C   0  0  0  0  0
    1.6043    2.8875    0.5773 C   0  0  0  0  0
    2.7525    1.7491    2.3725 C   0  0  0  0  0
    3.2355   -1.1674    0.3072 C   0  0  0  0  0
    0.8798   -0.4013    0.6695 C   0  0  0  0  0
    0.5658    0.8105    1.5504 C   0  0  0  0  0
    2.1042   -1.0261    1.1159 N   0  0  0  0  0
    3.2779   -0.7646   -0.8666 O   0  0  0  0  0
    3.0850   -3.8297    1.2477 O   0  0  0  0  0
    5.7430    0.1100    0.5753 O   0  0  0  0  0
    0.4018    0.3927    2.9059 O   0  0  0  0  0
    0.5674    2.9857   -0.2661 F   0  0  0  0  0
    2.8235    0.7487    3.2615 F   0  0  0  0  0
  1  3  1  0  0  0
  2  5  1  0  0  0
  4 10  1  0  0  0
  6 12  1  0  0  0
  7  9  1  0  0  0
  7 13  1  0  0  0
  8 11  1  0  0  0
  9 18  1  0  0  0
 10 19  1  0  0  0
 11 21  1  0  0  0
 12 22  1  0  0  0
 13 16  1  0  0  0
 14 15  1  0  0  0
 14 16  1  0  0  0
 15  8  1  0  0  0
 15 20  1  0  0  0
  1  4  2  0  0  0
  2  6  2  0  0  0
  3  9  2  0  0  0
  5 11  2  0  0  0
  7 10  2  0  0  0
  8 12  2  0  0  0
 13 17  2  0  0  0
M  END
> <rmsd>
0.457346112

$$$$
ZINC92106352


 22 23  0  0  0  0  0  0  0  0999 V2000
    1.1840    3.2706   -0.8579 C   0  0  0  0  0
    0.8518    3.9168    0.3326 C   0  0  0  0  0
    6.3399   -2.9342    2.4190 C   0  0  0  0  0
    1.1841    1.8770   -0.9186 C   0  0  0  0  0
    0.5198    3.1696    1.4627 C   0  0  0  0  0
    5.1398   -3.6168    2.2209 C   0  0  0  0  0
    6.5207   -1.6665    1.8660 C   0  0  0  0  0
    4.3013   -1.7641    0.9166 C   0  0  0  0  0
    0.8522    1.1297    0.2115 C   0  0  0  0  0
    4.1205   -3.0318    1.4696 C   0  0  0  0  0
    5.5013   -1.0814    1.1147 C   0  0  0  0  0
    0.5199    1.7760    1.4022 C   0  0  0  0  0
    3.2357   -1.1524    0.1304 C   0  0  0  0  0
    0.8579   -0.3693    0.1279 C   0  0  0  0  0
   -0.7165    1.6573    3.4306 C   0  0  0  0  0
    2.0146   -0.9428    0.7776 N   0  0  0  0  0
    3.4243   -0.8606   -1.0616 O   0  0  0  0  0
    2.9554   -3.7163    1.2894 O   0  0  0  0  0
    5.6989    0.1585    0.5842 O   0  0  0  0  0
    0.1940    1.0611    2.5152 O   0  0  0  0  0
   -1.4032    0.6539    4.0355 F   0  0  0  0  0
   -0.0178    2.2888    4.4058 F   0  0  0  0  0
  1  2  1  0  0  0
  3  6  1  0  0  0
  4  9  1  0  0  0
  5 12  1  0  0  0
  7 11  1  0  0  0
  8 10  1  0  0  0
  8 13  1  0  0  0
 10 18  1  0  0  0
 11 19  1  0  0  0
 12 20  1  0  0  0
 13 16  1  0  0  0
 14  9  1  0  0  0
 14 16  1  0  0  0
 15 20  1  0  0  0
 15 21  1  0  0  0
 15 22  1  0  0  0
  1  4  2  0  0  0
  2  5  2  0  0  0
  3  7  2  0  0  0
  6 10  2  0  0  0
  8 11  2  0  0  0
  9 12  2  0  0  0
 13 17  2  0  0  0
M  END
> <rmsd>
0.284746349

$$$$
ZINC92106352


 22 23  0  0  0  0  0  0  0  0999 V2000
    1.1841    3.2708   -0.8581 C   0  0  0  0  0
    0.8519    3.9170    0.3324 C   0  0  0  0  0
    6.3402   -2.9339    2.4186 C   0  0  0  0  0
    1.1842    1.8772   -0.9188 C   0  0  0  0  0
    0.5199    3.1698    1.4625 C   0  0  0  0  0
    5.1401   -3.6166    2.2206 C   0  0  0  0  0
    6.5209   -1.6662    1.8656 C   0  0  0  0  0
    4.3015   -1.7639    0.9163 C   0  0  0  0  0
    0.8523    1.1299    0.2113 C   0  0  0  0  0
    4.1207   -3.0316    1.4694 C   0  0  0  0  0
    5.5015   -1.0812    1.1144 C   0  0  0  0  0
    0.5200    1.7762    1.4020 C   0  0  0  0  0
    3.2359   -1.1522    0.1302 C   0  0  0  0  0
    0.8581   -0.3691    0.1278 C   0  0  0  0  0
    1.0054    1.2435    3.6686 C   0  0  0  0  0
    2.0148   -0.9426    0.7774 N   0  0  0  0  0
    3.4245   -0.8604   -1.0618 O   0  0  0  0  0
    2.9557   -3.7161    1.2892 O   0  0  0  0  0
    5.6990    0.1588    0.5838 O   0  0  0  0  0
    0.1942    1.0613    2.5150 O   0  0  0  0  0
    0.5093    0.4434    4.6475 F   0  0  0  0  0
    2.2591    0.7993    3.4061 F   0  0  0  0  0
  1  2  1  0  0  0
  3  6  1  0  0  0
  4  9  1  0  0  0
  5 12  1  0  0  0
  7 11  1  0  0  0
  8 10  1  0  0  0
  8 13  1  0  0  0
 10 18  1  0  0  0
 11 19  1  0  0  0
 12 20  1  0  0  0
 13 16  1  0  0  0
 14  9  1  0  0  0
 14 16  1  0  0  0
 15 20  1  0  0  0
 15 21  1  0  0  0
 15 22  1  0  0  0
  1  4  2  0  0  0
  2  5  2  0  0  0
  3  7  2  0  0  0
  6 10  2  0  0  0
  8 11  2  0  0  0
  9 12  2  0  0  0
 13 17  2  0  0  0
M  END
> <rmsd>
0.284674346

$$$$
ZINC92106352


 22 23  0  0  0  0  0  0  0  0999 V2000
    0.5021    3.1398    1.4884 C   0  0  0  0  0
    0.8325    3.9141    0.3763 C   0  0  0  0  0
    6.3336   -2.9293    2.4284 C   0  0  0  0  0
    0.5128    1.7479    1.3971 C   0  0  0  0  0
    1.1735    3.2967   -0.8271 C   0  0  0  0  0
    5.1340   -3.6121    2.2282 C   0  0  0  0  0
    6.5164   -1.6629    1.8729 C   0  0  0  0  0
    4.3000   -1.7624    0.9167 C   0  0  0  0  0
    0.8538    1.1304    0.1937 C   0  0  0  0  0
    4.1171   -3.0287    1.4723 C   0  0  0  0  0
    5.4996   -1.0795    1.1170 C   0  0  0  0  0
    1.1841    1.9048   -0.9184 C   0  0  0  0  0
    3.2371   -1.1524    0.1258 C   0  0  0  0  0
    0.8595   -0.3688    0.1139 C   0  0  0  0  0
    2.4269    2.0166   -2.9433 C   0  0  0  0  0
    2.0140   -0.9409    0.7685 N   0  0  0  0  0
    3.4295   -0.8636   -1.0663 O   0  0  0  0  0
    2.9525   -3.7134    1.2902 O   0  0  0  0  0
    5.6991    0.1591    0.5840 O   0  0  0  0  0
    1.5187    1.3176   -2.1014 O   0  0  0  0  0
    3.1232    1.0902   -3.6513 F   0  0  0  0  0
    1.7260    2.7451   -3.8466 F   0  0  0  0  0
  1  2  1  0  0  0
  3  6  1  0  0  0
  4  9  1  0  0  0
  5 12  1  0  0  0
  7 11  1  0  0  0
  8 10  1  0  0  0
  8 13  1  0  0  0
 10 18  1  0  0  0
 11 19  1  0  0  0
 12 20  1  0  0  0
 13 16  1  0  0  0
 14  9  1  0  0  0
 14 16  1  0  0  0
 15 20  1  0  0  0
 15 21  1  0  0  0
 15 22  1  0  0  0
  1  4  2  0  0  0
  2  5  2  0  0  0
  3  7  2  0  0  0
  6 10  2  0  0  0
  8 11  2  0  0  0
  9 12  2  0  0  0
 13 17  2  0  0  0
M  END
> <rmsd>
0.283587039

$$$$
ZINC92119582


 23 25  0  0  0  0  0  0  0  0999 V2000
    1.8942    6.3952   -2.9373 C   0  0  0  0  0
    1.5312    6.6300   -1.6111 C   0  0  0  0  0
    1.9931    5.0873   -3.4122 C   0  0  0  0  0
    6.3274   -2.9519    2.3996 C   0  0  0  0  0
    1.2671    5.5570   -0.7599 C   0  0  0  0  0
    1.7289    4.0143   -2.5609 C   0  0  0  0  0
    5.1176   -3.6188    2.2071 C   0  0  0  0  0
    6.5203   -1.6844    1.8502 C   0  0  0  0  0
    0.5830    1.9830    1.3690 C   0  0  0  0  0
    0.7391    3.2739    0.9273 C   0  0  0  0  0
    4.2934   -1.7508    0.9154 C   0  0  0  0  0
    1.3659    4.2492   -1.2348 C   0  0  0  0  0
    4.1006   -3.0183    1.4649 C   0  0  0  0  0
    5.5032   -1.0839    1.1080 C   0  0  0  0  0
    0.8760    1.1883    0.2445 C   0  0  0  0  0
    3.2304   -1.1229    0.1388 C   0  0  0  0  0
    0.8625   -0.3104    0.1553 C   0  0  0  0  0
    1.1940    1.9140   -0.8309 N   0  0  0  0  0
    1.1017    3.1780   -0.3840 N   0  0  0  0  0
    2.0164   -0.9006    0.7949 N   0  0  0  0  0
    3.4146   -0.8289   -1.0534 O   0  0  0  0  0
    2.9259   -3.6875    1.2901 O   0  0  0  0  0
    5.7126    0.1556    0.5808 O   0  0  0  0  0
  1  2  1  0  0  0
  3  6  1  0  0  0
  4  7  1  0  0  0
  5 12  1  0  0  0
  8 14  1  0  0  0
  9 15  1  0  0  0
 10 19  1  0  0  0
 11 13  1  0  0  0
 11 16  1  0  0  0
 12 19  1  0  0  0
 13 22  1  0  0  0
 14 23  1  0  0  0
 16 20  1  0  0  0
 17 15  1  0  0  0
 17 20  1  0  0  0
 19 18  1  0  0  0
  1  3  2  0  0  0
  2  5  2  0  0  0
  4  8  2  0  0  0
  6 12  2  0  0  0
  7 13  2  0  0  0
  9 10  2  0  0  0
 11 14  2  0  0  0
 15 18  2  0  0  0
 16 21  2  0  0  0
M  END
> <rmsd>
0.267472476

$$$$
ZINC92125329


 23 25  0  0  0  0  0  0  0  0999 V2000
    6.3481   -2.9564    2.3955 C   0  0  0  0  0
   -0.6922    1.0884   -1.7051 C   0  0  0  0  0
   -1.5042    1.8033   -2.5810 C   0  0  0  0  0
    5.1420   -3.6309    2.2061 C   0  0  0  0  0
    6.5317   -1.6879    1.8451 C   0  0  0  0  0
    1.6268    1.7562    1.1157 C   0  0  0  0  0
   -0.8088    3.8549   -1.5174 C   0  0  0  0  0
    1.5088    3.1311    1.1382 C   0  0  0  0  0
    0.0656    1.7594   -0.7302 C   0  0  0  0  0
    4.3030   -1.7683    0.9160 C   0  0  0  0  0
   -1.5623    3.1881   -2.4867 C   0  0  0  0  0
    0.0113    3.1652   -0.6286 C   0  0  0  0  0
    0.8910    1.0647    0.1641 C   0  0  0  0  0
    4.1194   -3.0369    1.4663 C   0  0  0  0  0
    5.5092   -1.0939    1.1054 C   0  0  0  0  0
    3.2138   -1.1356    0.1272 C   0  0  0  0  0
   -2.4289    3.9641   -3.4201 C   0  0  0  0  0
    0.7242    3.8391    0.2937 N   0  0  0  0  0
    1.0048   -0.3455    0.1312 N   0  0  0  0  0
    2.0270   -0.9357    0.8045 N   0  0  0  0  0
    3.4223   -0.8212   -1.0418 O   0  0  0  0  0
    2.9485   -3.7134    1.2946 O   0  0  0  0  0
    5.7095    0.1466    0.5772 O   0  0  0  0  0
  1  4  1  0  0  0
  2  9  1  0  0  0
  3 11  1  0  0  0
  5 15  1  0  0  0
  6  8  1  0  0  0
  7 12  1  0  0  0
  9 13  1  0  0  0
 10 14  1  0  0  0
 10 16  1  0  0  0
 12 18  1  0  0  0
 13 19  1  0  0  0
 14 22  1  0  0  0
 15 23  1  0  0  0
 16 20  1  0  0  0
 17 11  1  0  0  0
 19 20  1  0  0  0
  1  5  2  0  0  0
  2  3  2  0  0  0
  4 14  2  0  0  0
  6 13  2  0  0  0
  7 11  2  0  0  0
  8 18  2  0  0  0
  9 12  2  0  0  0
 10 15  2  0  0  0
 16 21  2  0  0  0
M  END
> <rmsd>
0.25415808

$$$$
ZINC92120270


 23 25  0  0  0  0  0  0  0  0999 V2000
    1.8266    6.4525   -3.1270 C   0  0  0  0  0
    0.9338    6.6125   -2.0673 C   0  0  0  0  0
    2.4784    5.2333   -3.3119 C   0  0  0  0  0
    6.3454   -2.9719    2.3660 C   0  0  0  0  0
    0.6928    5.5532   -1.1924 C   0  0  0  0  0
    2.2375    4.1740   -2.4370 C   0  0  0  0  0
    5.1321   -3.6347    2.1810 C   0  0  0  0  0
    6.5351   -1.7004    1.8249 C   0  0  0  0  0
    0.7521    3.2107    0.8582 C   0  0  0  0  0
    1.3447    4.3339   -1.3773 C   0  0  0  0  0
    4.2982   -1.7543    0.9136 C   0  0  0  0  0
    4.1085   -3.0259    1.4548 C   0  0  0  0  0
    5.5116   -1.0917    1.0986 C   0  0  0  0  0
    1.0948    3.2385   -0.4730 C   0  0  0  0  0
    0.8728    1.1718    0.2594 C   0  0  0  0  0
    3.2083   -1.1061    0.1396 C   0  0  0  0  0
    0.8622   -0.3015    0.2021 C   0  0  0  0  0
    0.6156    1.9214    1.3082 N   0  0  0  0  0
    1.1689    1.9250   -0.8426 N   0  0  0  0  0
    2.0236   -0.8993    0.8256 N   0  0  0  0  0
    3.4003   -0.8145   -1.0380 O   0  0  0  0  0
    2.9305   -3.6912    1.2871 O   0  0  0  0  0
    5.7180    0.1516    0.5793 O   0  0  0  0  0
  1  2  1  0  0  0
  3  6  1  0  0  0
  4  7  1  0  0  0
  5 10  1  0  0  0
  8 13  1  0  0  0
  9 18  1  0  0  0
 10 14  1  0  0  0
 11 12  1  0  0  0
 11 16  1  0  0  0
 12 22  1  0  0  0
 13 23  1  0  0  0
 14 19  1  0  0  0
 15 19  1  0  0  0
 16 20  1  0  0  0
 17 15  1  0  0  0
 17 20  1  0  0  0
  1  3  2  0  0  0
  2  5  2  0  0  0
  4  8  2  0  0  0
  6 10  2  0  0  0
  7 12  2  0  0  0
  9 14  2  0  0  0
 11 13  2  0  0  0
 15 18  2  0  0  0
 16 21  2  0  0  0
M  END
> <rmsd>
0.264619678

$$$$
ZINC92120270


 23 25  0  0  0  0  0  0  0  0999 V2000
   -0.0566    6.2335    3.8880 C   0  0  0  0  0
   -0.3103    6.4676    2.5365 C   0  0  0  0  0
    0.4373    4.9959    4.3007 C   0  0  0  0  0
    6.3153   -2.9479    2.4133 C   0  0  0  0  0
   -0.0704    5.4643    1.5978 C   0  0  0  0  0
    0.6773    3.9925    3.3620 C   0  0  0  0  0
    5.1045   -3.6123    2.2180 C   0  0  0  0  0
    6.5139   -1.6830    1.8601 C   0  0  0  0  0
    1.0356    3.2448   -0.2853 C   0  0  0  0  0
    0.4235    4.2267    2.0105 C   0  0  0  0  0
    4.2910   -1.7468    0.9159 C   0  0  0  0  0
    4.0924   -3.0118    1.4692 C   0  0  0  0  0
    5.5018   -1.0825    1.1114 C   0  0  0  0  0
    0.6724    3.1896    1.0396 C   0  0  0  0  0
    0.8775    1.1728    0.1754 C   0  0  0  0  0
    3.2133   -1.1073    0.1179 C   0  0  0  0  0
    0.8669   -0.3011    0.1354 C   0  0  0  0  0
    1.1613    1.9860   -0.8176 N   0  0  0  0  0
    0.5746    1.8559    1.3203 N   0  0  0  0  0
    2.0184   -0.8919    0.7835 N   0  0  0  0  0
    3.4232   -0.8298   -1.0600 O   0  0  0  0  0
    2.9166   -3.6785    1.2916 O   0  0  0  0  0
    5.7168    0.1545    0.5805 O   0  0  0  0  0
  1  2  1  0  0  0
  3  6  1  0  0  0
  4  7  1  0  0  0
  5 10  1  0  0  0
  8 13  1  0  0  0
  9 18  1  0  0  0
 10 14  1  0  0  0
 11 12  1  0  0  0
 11 16  1  0  0  0
 12 22  1  0  0  0
 13 23  1  0  0  0
 14 19  1  0  0  0
 15 19  1  0  0  0
 16 20  1  0  0  0
 17 15  1  0  0  0
 17 20  1  0  0  0
  1  3  2  0  0  0
  2  5  2  0  0  0
  4  8  2  0  0  0
  6 10  2  0  0  0
  7 12  2  0  0  0
  9 14  2  0  0  0
 11 13  2  0  0  0
 15 18  2  0  0  0
 16 21  2  0  0  0
M  END
> <rmsd>
0.259288311

$$$$
ZINC92120246


 23 25  0  0  0  0  0  0  0  0999 V2000
    1.1876    3.2602   -0.8704 C   0  0  0  0  0
    0.8588    3.9179    0.3149 C   0  0  0  0  0
    6.3428   -2.9357    2.4146 C   0  0  0  0  0
    1.1840    1.8662   -0.9186 C   0  0  0  0  0
    0.5264    3.1817    1.4520 C   0  0  0  0  0
    5.1424   -3.6182    2.2176 C   0  0  0  0  0
    6.5227   -1.6674    1.8625 C   0  0  0  0  0
    0.1841    0.2717    4.5751 C   0  0  0  0  0
   -0.8604   -0.2485    3.7876 C   0  0  0  0  0
    0.8509    1.1312    3.7365 C   0  0  0  0  0
    4.3019   -1.7644    0.9161 C   0  0  0  0  0
    0.8516    1.1298    0.2185 C   0  0  0  0  0
    0.5228    1.7876    1.4039 C   0  0  0  0  0
    4.1220   -3.0326    1.4683 C   0  0  0  0  0
    5.5022   -1.0818    1.1132 C   0  0  0  0  0
    3.2353   -1.1520    0.1321 C   0  0  0  0  0
    0.8574   -0.3691    0.1336 C   0  0  0  0  0
   -0.8614    0.2398    2.5444 N   0  0  0  0  0
    0.1906    1.0760    2.5444 N   0  0  0  0  0
    2.0151   -0.9431    0.7811 N   0  0  0  0  0
    3.4222   -0.8592   -1.0599 O   0  0  0  0  0
    2.9567   -3.7170    1.2892 O   0  0  0  0  0
    5.6989    0.1587    0.5835 O   0  0  0  0  0
  1  2  1  0  0  0
  3  6  1  0  0  0
  4 12  1  0  0  0
  5 13  1  0  0  0
  7 15  1  0  0  0
  8  9  1  0  0  0
 10 19  1  0  0  0
 11 14  1  0  0  0
 11 16  1  0  0  0
 13 19  1  0  0  0
 14 22  1  0  0  0
 15 23  1  0  0  0
 16 20  1  0  0  0
 17 12  1  0  0  0
 17 20  1  0  0  0
 19 18  1  0  0  0
  1  4  2  0  0  0
  2  5  2  0  0  0
  3  7  2  0  0  0
  6 14  2  0  0  0
  8 10  2  0  0  0
  9 18  2  0  0  0
 11 15  2  0  0  0
 12 13  2  0  0  0
 16 21  2  0  0  0
M  END
> <rmsd>
0.285009652

$$$$
ZINC92120246


 23 25  0  0  0  0  0  0  0  0999 V2000
    1.4460    3.1337    1.3958 C   0  0  0  0  0
    0.8683    3.9097    0.3910 C   0  0  0  0  0
    6.3323   -2.9257    2.4316 C   0  0  0  0  0
    1.4374    1.7426    1.2947 C   0  0  0  0  0
    0.2819    3.2945   -0.7151 C   0  0  0  0  0
    5.1335   -3.6098    2.2309 C   0  0  0  0  0
    6.5145   -1.6596    1.8752 C   0  0  0  0  0
   -1.0484    0.9362   -3.9448 C   0  0  0  0  0
   -1.3296   -0.1259   -3.0647 C   0  0  0  0  0
   -0.3872    1.8580   -3.1705 C   0  0  0  0  0
    4.2990   -1.7619    0.9171 C   0  0  0  0  0
    0.8509    1.1273    0.1886 C   0  0  0  0  0
    0.2732    1.9034   -0.8162 C   0  0  0  0  0
    4.1168   -3.0279    1.4735 C   0  0  0  0  0
    5.4979   -1.0777    1.1179 C   0  0  0  0  0
    3.2363   -1.1534    0.1246 C   0  0  0  0  0
    0.8580   -0.3720    0.1099 C   0  0  0  0  0
   -0.8834    0.0990   -1.8260 N   0  0  0  0  0
   -0.3150    1.3130   -1.9223 N   0  0  0  0  0
    2.0125   -0.9425    0.7661 N   0  0  0  0  0
    3.4296   -0.8654   -1.0675 O   0  0  0  0  0
    2.9530   -3.7137    1.2909 O   0  0  0  0  0
    5.6967    0.1606    0.5841 O   0  0  0  0  0
  1  2  1  0  0  0
  3  6  1  0  0  0
  4 12  1  0  0  0
  5 13  1  0  0  0
  7 15  1  0  0  0
  8  9  1  0  0  0
 10 19  1  0  0  0
 11 14  1  0  0  0
 11 16  1  0  0  0
 13 19  1  0  0  0
 14 22  1  0  0  0
 15 23  1  0  0  0
 16 20  1  0  0  0
 17 12  1  0  0  0
 17 20  1  0  0  0
 19 18  1  0  0  0
  1  4  2  0  0  0
  2  5  2  0  0  0
  3  7  2  0  0  0
  6 14  2  0  0  0
  8 10  2  0  0  0
  9 18  2  0  0  0
 11 15  2  0  0  0
 12 13  2  0  0  0
 16 21  2  0  0  0
M  END
> <rmsd>
0.287270635

$$$$
ZINC92124472


 23 26  0  0  0  0  0  0  0  0999 V2000
   -2.5706    1.5957   -3.3979 C   0  0  0  0  0
   -1.3480    0.9208   -3.5048 C   0  0  0  0  0
    6.3902   -3.0755    2.1953 C   0  0  0  0  0
   -2.8147    2.4449   -2.3205 C   0  0  0  0  0
   -0.3572    1.0797   -2.5306 C   0  0  0  0  0
    5.1509   -3.6989    2.0506 C   0  0  0  0  0
    6.5861   -1.7883    1.6948 C   0  0  0  0  0
    4.3033   -1.7482    0.9047 C   0  0  0  0  0
   -1.8199    2.5995   -1.3665 C   0  0  0  0  0
   -0.5960    1.9102   -1.4411 C   0  0  0  0  0
    4.1075   -3.0354    1.4053 C   0  0  0  0  0
    5.5427   -1.1248    1.0494 C   0  0  0  0  0
    3.1923   -1.0415    0.2167 C   0  0  0  0  0
   -1.8806    3.4546   -0.1297 C   0  0  0  0  0
   -0.4085    3.5085    0.3431 C   0  0  0  0  0
    1.7617    2.1622   -0.2660 C   0  0  0  0  0
    0.9353    1.2938    0.6466 C   0  0  0  0  0
    0.2603    2.2868   -0.2745 C   0  0  0  0  0
    0.8760   -0.1801    0.4377 C   0  0  0  0  0
    2.0435   -0.8277    0.9698 N   0  0  0  0  0
    3.3293   -0.7075   -0.9572 O   0  0  0  0  0
    2.9043   -3.6630    1.2758 O   0  0  0  0  0
    5.7556    0.1328    0.5686 O   0  0  0  0  0
  1  2  1  0  0  0
  3  6  1  0  0  0
  4  9  1  0  0  0
  5 10  1  0  0  0
  7 12  1  0  0  0
  8 11  1  0  0  0
  8 13  1  0  0  0
 11 22  1  0  0  0
 12 23  1  0  0  0
 13 20  1  0  0  0
 14  9  1  0  0  0
 14 15  1  0  0  0
 15 18  1  0  0  0
 16 17  1  0  0  0
 16 18  1  0  0  0
 17 18  1  0  0  0
 17 19  1  0  0  0
 18 10  1  0  0  0
 19 20  1  0  0  0
  1  4  2  0  0  0
  2  5  2  0  0  0
  3  7  2  0  0  0
  6 11  2  0  0  0
  8 12  2  0  0  0
  9 10  2  0  0  0
 13 21  2  0  0  0
M  END
> <rmsd>
0.337541103

$$$$
ZINC92108100


 23 25  0  0  0  0  0  0  0  0999 V2000
    4.5104    5.8084   -1.7423 C   0  0  0  0  0
    3.3937    6.2914   -1.0602 C   0  0  0  0  0
    4.6907    4.4342   -1.9001 C   0  0  0  0  0
    6.3435   -2.9662    2.3654 C   0  0  0  0  0
    2.4574    5.4003   -0.5358 C   0  0  0  0  0
    3.7546    3.5431   -1.3756 C   0  0  0  0  0
    5.1313   -3.6309    2.1802 C   0  0  0  0  0
    6.5312   -1.6940    1.8248 C   0  0  0  0  0
    0.4945    3.2154    0.5499 C   0  0  0  0  0
    2.6378    4.0262   -0.6934 C   0  0  0  0  0
    4.2943   -1.7513    0.9137 C   0  0  0  0  0
    4.1066   -3.0235    1.4543 C   0  0  0  0  0
    5.5065   -1.0867    1.0989 C   0  0  0  0  0
    1.6692    3.1050   -0.1519 C   0  0  0  0  0
    0.8630    1.1659    0.2553 C   0  0  0  0  0
    3.2033   -1.1046    0.1399 C   0  0  0  0  0
    0.8557   -0.3040    0.2028 C   0  0  0  0  0
   -0.0176    1.9695    0.8076 N   0  0  0  0  0
    2.0194   -0.9007    0.8268 N   0  0  0  0  0
    3.3946   -0.8122   -1.0375 O   0  0  0  0  0
    1.9172    1.7801   -0.3483 O   0  0  0  0  0
    2.9299   -3.6907    1.2864 O   0  0  0  0  0
    5.7108    0.1571    0.5800 O   0  0  0  0  0
  1  2  1  0  0  0
  3  6  1  0  0  0
  4  7  1  0  0  0
  5 10  1  0  0  0
  8 13  1  0  0  0
  9 18  1  0  0  0
 10 14  1  0  0  0
 11 12  1  0  0  0
 11 16  1  0  0  0
 12 22  1  0  0  0
 13 23  1  0  0  0
 14 21  1  0  0  0
 15 21  1  0  0  0
 16 19  1  0  0  0
 17 15  1  0  0  0
 17 19  1  0  0  0
  1  3  2  0  0  0
  2  5  2  0  0  0
  4  8  2  0  0  0
  6 10  2  0  0  0
  7 12  2  0  0  0
  9 14  2  0  0  0
 11 13  2  0  0  0
 15 18  2  0  0  0
 16 20  2  0  0  0
M  END
> <rmsd>
0.289661288

$$$$
ZINC92108100


 23 25  0  0  0  0  0  0  0  0999 V2000
    1.9245    5.9148   -3.6239 C   0  0  0  0  0
    1.6151    6.3683   -2.3416 C   0  0  0  0  0
    1.9667    4.5458   -3.8881 C   0  0  0  0  0
    6.3534   -2.9828    2.3467 C   0  0  0  0  0
    1.3478    5.4529   -1.3236 C   0  0  0  0  0
    1.6995    3.6304   -2.8702 C   0  0  0  0  0
    5.1377   -3.6424    2.1662 C   0  0  0  0  0
    6.5423   -1.7090    1.8104 C   0  0  0  0  0
    0.7842    3.2169    0.7951 C   0  0  0  0  0
    1.3901    4.0839   -1.5879 C   0  0  0  0  0
    4.2996   -1.7544    0.9130 C   0  0  0  0  0
    4.1107   -3.0282    1.4493 C   0  0  0  0  0
    5.5153   -1.0950    1.0935 C   0  0  0  0  0
    1.1129    3.1375   -0.5355 C   0  0  0  0  0
    0.8748    1.1778    0.2885 C   0  0  0  0  0
    3.2062   -1.1005    0.1488 C   0  0  0  0  0
    0.8619   -0.2918    0.2298 C   0  0  0  0  0
    0.6327    1.9580    1.3175 N   0  0  0  0  0
    2.0273   -0.8953    0.8439 N   0  0  0  0  0
    3.3913   -0.8037   -1.0285 O   0  0  0  0  0
    1.1742    1.8195   -0.8740 O   0  0  0  0  0
    2.9305   -3.6905    1.2859 O   0  0  0  0  0
    5.7209    0.1503    0.5787 O   0  0  0  0  0
  1  2  1  0  0  0
  3  6  1  0  0  0
  4  7  1  0  0  0
  5 10  1  0  0  0
  8 13  1  0  0  0
  9 18  1  0  0  0
 10 14  1  0  0  0
 11 12  1  0  0  0
 11 16  1  0  0  0
 12 22  1  0  0  0
 13 23  1  0  0  0
 14 21  1  0  0  0
 15 21  1  0  0  0
 16 19  1  0  0  0
 17 15  1  0  0  0
 17 19  1  0  0  0
  1  3  2  0  0  0
  2  5  2  0  0  0
  4  8  2  0  0  0
  6 10  2  0  0  0
  7 12  2  0  0  0
  9 14  2  0  0  0
 11 13  2  0  0  0
 15 18  2  0  0  0
 16 20  2  0  0  0
M  END
> <rmsd>
0.267569691

$$$$
ZINC92123022


 23 25  0  0  0  0  0  0  0  0999 V2000
    0.8533    1.5954    3.9556 C   0  0  0  0  0
    0.9265    2.9836    4.0351 C   0  0  0  0  0
    6.3072   -2.8870    2.4756 C   0  0  0  0  0
    0.8510    0.9598    2.7102 C   0  0  0  0  0
    0.9978    3.7415    2.8695 C   0  0  0  0  0
    5.1172   -3.5832    2.2641 C   0  0  0  0  0
    6.4872   -1.6252    1.9087 C   0  0  0  0  0
    0.9223    1.7052    1.5243 C   0  0  0  0  0
    4.2871   -1.7561    0.9188 C   0  0  0  0  0
    0.9955    3.1033    1.6248 C   0  0  0  0  0
    4.1072   -3.0179    1.4857 C   0  0  0  0  0
    5.4771   -1.0598    1.1303 C   0  0  0  0  0
    0.9956    1.8754   -0.9053 C   0  0  0  0  0
    0.9241    1.0885    0.1809 C   0  0  0  0  0
    1.0730    3.3562   -0.8106 C   0  0  0  0  0
    3.2118   -1.1540    0.0893 C   0  0  0  0  0
    0.8469   -0.4045    0.0460 C   0  0  0  0  0
    1.0684    3.8863    0.4601 N   0  0  0  0  0
    1.9869   -0.9531    0.7198 N   0  0  0  0  0
    1.1360    4.0349   -1.8335 O   0  0  0  0  0
    3.4401   -0.8876   -1.0878 O   0  0  0  0  0
    2.9520   -3.7154    1.2929 O   0  0  0  0  0
    5.6737    0.1746    0.5866 O   0  0  0  0  0
  1  2  1  0  0  0
  3  6  1  0  0  0
  4  8  1  0  0  0
  5 10  1  0  0  0
  7 12  1  0  0  0
  8 14  1  0  0  0
  9 11  1  0  0  0
  9 16  1  0  0  0
 10 18  1  0  0  0
 11 22  1  0  0  0
 12 23  1  0  0  0
 13 15  1  0  0  0
 15 18  1  0  0  0
 16 19  1  0  0  0
 17 14  1  0  0  0
 17 19  1  0  0  0
  1  4  2  0  0  0
  2  5  2  0  0  0
  3  7  2  0  0  0
  6 11  2  0  0  0
  8 10  2  0  0  0
  9 12  2  0  0  0
 13 14  2  0  0  0
 15 20  2  0  0  0
 16 21  2  0  0  0
M  END
> <rmsd>
0.329537749

$$$$
ZINC92120688


 23 25  0  0  0  0  0  0  0  0999 V2000
    1.4675    7.2708   -1.6714 C   0  0  0  0  0
    1.6884    6.2029   -2.5411 C   0  0  0  0  0
    1.1034    7.0279   -0.3470 C   0  0  0  0  0
    6.3223   -2.9524    2.4044 C   0  0  0  0  0
    1.5451    4.8920   -2.0865 C   0  0  0  0  0
    0.9601    5.7169    0.1077 C   0  0  0  0  0
    5.1111   -3.6167    2.2110 C   0  0  0  0  0
    6.5189   -1.6861    1.8534 C   0  0  0  0  0
    1.1716    2.0560   -0.8623 C   0  0  0  0  0
    1.1809    4.6491   -0.7620 C   0  0  0  0  0
    4.2934   -1.7485    0.9155 C   0  0  0  0  0
    4.0967   -3.0148    1.4666 C   0  0  0  0  0
    5.5046   -1.0842    1.1090 C   0  0  0  0  0
    1.0337    3.2936   -0.2918 C   0  0  0  0  0
    0.8762    1.1693    0.1875 C   0  0  0  0  0
    3.2133   -1.1076    0.1221 C   0  0  0  0  0
    0.8667   -0.3020    0.1481 C   0  0  0  0  0
    0.5780    1.8080    1.3223 N   0  0  0  0  0
    2.0210   -0.8944    0.7920 N   0  0  0  0  0
    3.4196   -0.8273   -1.0558 O   0  0  0  0  0
    0.6797    3.1588    1.0119 O   0  0  0  0  0
    2.9207   -3.6815    1.2908 O   0  0  0  0  0
    5.7176    0.1540    0.5803 O   0  0  0  0  0
  1  2  1  0  0  0
  3  6  1  0  0  0
  4  7  1  0  0  0
  5 10  1  0  0  0
  8 13  1  0  0  0
  9 15  1  0  0  0
 10 14  1  0  0  0
 11 12  1  0  0  0
 11 16  1  0  0  0
 12 22  1  0  0  0
 13 23  1  0  0  0
 14 21  1  0  0  0
 16 19  1  0  0  0
 17 15  1  0  0  0
 17 19  1  0  0  0
 18 21  1  0  0  0
  1  3  2  0  0  0
  2  5  2  0  0  0
  4  8  2  0  0  0
  6 10  2  0  0  0
  7 12  2  0  0  0
  9 14  2  0  0  0
 11 13  2  0  0  0
 15 18  2  0  0  0
 16 20  2  0  0  0
M  END
> <rmsd>
0.258923501

$$$$
ZINC92120688


 23 25  0  0  0  0  0  0  0  0999 V2000
    0.3809    7.1505    2.4825 C   0  0  0  0  0
    0.1546    6.0339    3.2872 C   0  0  0  0  0
    0.7283    6.9851    1.1417 C   0  0  0  0  0
    6.3426   -2.9689    2.3715 C   0  0  0  0  0
    0.2759    4.7519    2.7512 C   0  0  0  0  0
    0.8496    5.7031    0.6058 C   0  0  0  0  0
    5.1297   -3.6322    2.1854 C   0  0  0  0  0
    6.5330   -1.6981    1.8288 C   0  0  0  0  0
    0.5992    1.9922    1.3511 C   0  0  0  0  0
    0.6233    4.5865    1.4105 C   0  0  0  0  0
    4.2978   -1.7538    0.9138 C   0  0  0  0  0
    4.1073   -3.0247    1.4565 C   0  0  0  0  0
    5.5106   -1.0906    1.1000 C   0  0  0  0  0
    0.7478    3.2607    0.8562 C   0  0  0  0  0
    0.8721    1.1682    0.2455 C   0  0  0  0  0
    3.2091   -1.1069    0.1370 C   0  0  0  0  0
    0.8627   -0.3027    0.1942 C   0  0  0  0  0
    1.1674    1.8719   -0.8511 N   0  0  0  0  0
    2.0239   -0.8998    0.8211 N   0  0  0  0  0
    3.4030   -0.8169   -1.0406 O   0  0  0  0  0
    1.0868    3.2021   -0.4571 O   0  0  0  0  0
    2.9298   -3.6905    1.2877 O   0  0  0  0  0
    5.7177    0.1519    0.5793 O   0  0  0  0  0
  1  2  1  0  0  0
  3  6  1  0  0  0
  4  7  1  0  0  0
  5 10  1  0  0  0
  8 13  1  0  0  0
  9 15  1  0  0  0
 10 14  1  0  0  0
 11 12  1  0  0  0
 11 16  1  0  0  0
 12 22  1  0  0  0
 13 23  1  0  0  0
 14 21  1  0  0  0
 16 19  1  0  0  0
 17 15  1  0  0  0
 17 19  1  0  0  0
 18 21  1  0  0  0
  1  3  2  0  0  0
  2  5  2  0  0  0
  4  8  2  0  0  0
  6 10  2  0  0  0
  7 12  2  0  0  0
  9 14  2  0  0  0
 11 13  2  0  0  0
 15 18  2  0  0  0
 16 20  2  0  0  0
M  END
> <rmsd>
0.263296843

$$$$
ZINC92108068


 23 25  0  0  0  0  0  0  0  0999 V2000
    6.3355   -2.9303    2.4253 C   0  0  0  0  0
    1.4345    3.1459    1.3757 C   0  0  0  0  0
    1.4353    1.7578    1.2950 C   0  0  0  0  0
    5.1357   -3.6132    2.2259 C   0  0  0  0  0
    6.5175   -1.6635    1.8706 C   0  0  0  0  0
   -1.0350    0.9367   -3.9046 C   0  0  0  0  0
    0.8424    3.8552    0.3431 C   0  0  0  0  0
   -1.3126   -0.1205   -3.0173 C   0  0  0  0  0
   -0.3762    1.8655   -3.1365 C   0  0  0  0  0
    4.3000   -1.7626    0.9167 C   0  0  0  0  0
    0.8526    1.1302    0.1996 C   0  0  0  0  0
    4.1180   -3.0293    1.4716 C   0  0  0  0  0
    5.4997   -1.0796    1.1162 C   0  0  0  0  0
    0.2864    1.9298   -0.7803 C   0  0  0  0  0
    3.2362   -1.1521    0.1274 C   0  0  0  0  0
    0.8584   -0.3689    0.1186 C   0  0  0  0  0
    0.2664    3.2809   -0.7366 N   0  0  0  0  0
   -0.8666    0.1139   -1.7803 N   0  0  0  0  0
   -0.3019    1.3289   -1.8848 N   0  0  0  0  0
    2.0138   -0.9413    0.7716 N   0  0  0  0  0
    3.4272   -0.8624   -1.0647 O   0  0  0  0  0
    2.9533   -3.7140    1.2901 O   0  0  0  0  0
    5.6985    0.1594    0.5840 O   0  0  0  0  0
  1  4  1  0  0  0
  2  7  1  0  0  0
  3 11  1  0  0  0
  5 13  1  0  0  0
  6  8  1  0  0  0
  9 19  1  0  0  0
 10 12  1  0  0  0
 10 15  1  0  0  0
 12 22  1  0  0  0
 13 23  1  0  0  0
 14 17  1  0  0  0
 14 19  1  0  0  0
 15 20  1  0  0  0
 16 11  1  0  0  0
 16 20  1  0  0  0
 19 18  1  0  0  0
  1  5  2  0  0  0
  2  3  2  0  0  0
  4 12  2  0  0  0
  6  9  2  0  0  0
  7 17  2  0  0  0
  8 18  2  0  0  0
 10 13  2  0  0  0
 11 14  2  0  0  0
 15 21  2  0  0  0
M  END
> <rmsd>
0.284438103

$$$$
ZINC92108152


 23 25  0  0  0  0  0  0  0  0999 V2000
   -1.6207    0.9006   -4.2346 C   0  0  0  0  0
   -0.9211    2.1056   -4.1717 C   0  0  0  0  0
   -1.6695    0.0635   -3.1199 C   0  0  0  0  0
    6.3256   -2.9516    2.4036 C   0  0  0  0  0
   -0.2699    2.4734   -2.9943 C   0  0  0  0  0
   -1.0184    0.4313   -1.9424 C   0  0  0  0  0
    5.1157   -3.6182    2.2103 C   0  0  0  0  0
    6.5196   -1.6848    1.8530 C   0  0  0  0  0
    0.5484    3.2736   -0.2651 C   0  0  0  0  0
    4.2940   -1.7514    0.9155 C   0  0  0  0  0
   -0.3186    1.6363   -1.8796 C   0  0  0  0  0
    4.0999   -3.0181    1.4662 C   0  0  0  0  0
    5.5038   -1.0847    1.1089 C   0  0  0  0  0
    0.8785    1.1884    0.2370 C   0  0  0  0  0
    3.2321   -1.1239    0.1369 C   0  0  0  0  0
    0.8646   -0.3104    0.1495 C   0  0  0  0  0
    1.1915    3.2404    0.8802 N   0  0  0  0  0
    1.4014    1.9138    1.1997 N   0  0  0  0  0
    0.3305    2.0037   -0.7062 N   0  0  0  0  0
    2.0174   -0.9004    0.7913 N   0  0  0  0  0
    3.4179   -0.8313   -1.0554 O   0  0  0  0  0
    2.9252   -3.6871    1.2906 O   0  0  0  0  0
    5.7143    0.1541    0.5805 O   0  0  0  0  0
  1  2  1  0  0  0
  3  6  1  0  0  0
  4  7  1  0  0  0
  5 11  1  0  0  0
  8 13  1  0  0  0
  9 19  1  0  0  0
 10 12  1  0  0  0
 10 15  1  0  0  0
 11 19  1  0  0  0
 12 22  1  0  0  0
 13 23  1  0  0  0
 14 19  1  0  0  0
 15 20  1  0  0  0
 16 14  1  0  0  0
 16 20  1  0  0  0
 17 18  1  0  0  0
  1  3  2  0  0  0
  2  5  2  0  0  0
  4  8  2  0  0  0
  6 11  2  0  0  0
  7 12  2  0  0  0
  9 17  2  0  0  0
 10 13  2  0  0  0
 14 18  2  0  0  0
 15 21  2  0  0  0
M  END
> <rmsd>
0.261002064

$$$$
ZINC92124478


 23 25  0  0  0  0  0  0  0  0999 V2000
    0.2785    6.8276    2.9585 C   0  0  0  0  0
    0.0692    5.6079    3.6021 C   0  0  0  0  0
    0.6502    6.8520    1.6143 C   0  0  0  0  0
    6.3371   -2.9578    2.3867 C   0  0  0  0  0
    0.2316    4.4127    2.9016 C   0  0  0  0  0
    0.8127    5.6569    0.9137 C   0  0  0  0  0
    5.1271   -3.6251    2.1969 C   0  0  0  0  0
    6.5266   -1.6883    1.8406 C   0  0  0  0  0
    0.5978    1.9859    1.3468 C   0  0  0  0  0
    4.2960   -1.7537    0.9147 C   0  0  0  0  0
    0.6034    4.4372    1.5574 C   0  0  0  0  0
    4.1065   -3.0231    1.4609 C   0  0  0  0  0
    5.5060   -1.0863    1.1046 C   0  0  0  0  0
    0.8732    1.1845    0.2674 C   0  0  0  0  0
    3.2292   -1.1242    0.1446 C   0  0  0  0  0
    0.8607   -0.3138    0.1734 C   0  0  0  0  0
    1.1893    1.9612   -0.8126 N   0  0  0  0  0
    1.1196    3.2331   -0.4352 N   0  0  0  0  0
    0.7650    3.2458    0.8599 N   0  0  0  0  0
    2.0177   -0.9051    0.8064 N   0  0  0  0  0
    3.4082   -0.8262   -1.0474 O   0  0  0  0  0
    2.9317   -3.6928    1.2887 O   0  0  0  0  0
    5.7121    0.1551    0.5805 O   0  0  0  0  0
  1  2  1  0  0  0
  3  6  1  0  0  0
  4  7  1  0  0  0
  5 11  1  0  0  0
  8 13  1  0  0  0
  9 19  1  0  0  0
 10 12  1  0  0  0
 10 15  1  0  0  0
 11 19  1  0  0  0
 12 22  1  0  0  0
 13 23  1  0  0  0
 14 17  1  0  0  0
 15 20  1  0  0  0
 16 14  1  0  0  0
 16 20  1  0  0  0
 19 18  1  0  0  0
  1  3  2  0  0  0
  2  5  2  0  0  0
  4  8  2  0  0  0
  6 11  2  0  0  0
  7 12  2  0  0  0
  9 14  2  0  0  0
 10 13  2  0  0  0
 15 21  2  0  0  0
 17 18  2  0  0  0
M  END
> <rmsd>
0.269613236

$$$$
ZINC92108397


 23 25  0  0  0  0  0  0  0  0999 V2000
    6.3352   -2.9304    2.4259 C   0  0  0  0  0
    1.4347    3.1460    1.3751 C   0  0  0  0  0
    1.4354    1.7579    1.2945 C   0  0  0  0  0
    5.1354   -3.6132    2.2264 C   0  0  0  0  0
    6.5173   -1.6636    1.8710 C   0  0  0  0  0
    0.8428    3.8552    0.3423 C   0  0  0  0  0
   -1.2908   -0.0438   -3.0677 C   0  0  0  0  0
   -0.3907    1.8380   -3.1434 C   0  0  0  0  0
    4.2999   -1.7627    0.9170 C   0  0  0  0  0
    0.8527    1.1303    0.1992 C   0  0  0  0  0
    4.1177   -3.0294    1.4719 C   0  0  0  0  0
    5.4997   -1.0798    1.1165 C   0  0  0  0  0
    0.2867    1.9297   -0.7808 C   0  0  0  0  0
    3.2362   -1.1523    0.1274 C   0  0  0  0  0
    0.8585   -0.3689    0.1184 C   0  0  0  0  0
    0.2667    3.2808   -0.7374 N   0  0  0  0  0
   -1.0166    0.9860   -3.9215 N   0  0  0  0  0
   -0.8738    0.1175   -1.8101 N   0  0  0  0  0
   -0.3016    1.3287   -1.8853 N   0  0  0  0  0
    2.0137   -0.9413    0.7716 N   0  0  0  0  0
    3.4274   -0.8627   -1.0647 O   0  0  0  0  0
    2.9530   -3.7140    1.2905 O   0  0  0  0  0
    5.6985    0.1591    0.5841 O   0  0  0  0  0
  1  4  1  0  0  0
  2  6  1  0  0  0
  3 10  1  0  0  0
  5 12  1  0  0  0
  7 17  1  0  0  0
  8 19  1  0  0  0
  9 11  1  0  0  0
  9 14  1  0  0  0
 11 22  1  0  0  0
 12 23  1  0  0  0
 13 16  1  0  0  0
 13 19  1  0  0  0
 14 20  1  0  0  0
 15 10  1  0  0  0
 15 20  1  0  0  0
 19 18  1  0  0  0
  1  5  2  0  0  0
  2  3  2  0  0  0
  4 11  2  0  0  0
  6 16  2  0  0  0
  7 18  2  0  0  0
  8 17  2  0  0  0
  9 12  2  0  0  0
 10 13  2  0  0  0
 14 21  2  0  0  0
M  END
> <rmsd>
0.284447223

$$$$
ZINC92125153


 23 25  0  0  0  0  0  0  0  0999 V2000
    1.0457    5.6527   -0.1735 C   0  0  0  0  0
    6.3177   -2.9486    2.4105 C   0  0  0  0  0
    0.6761    5.5824    1.1717 C   0  0  0  0  0
    1.2351    4.4903   -0.9314 C   0  0  0  0  0
    5.1071   -3.6133    2.2157 C   0  0  0  0  0
    6.5154   -1.6832    1.8579 C   0  0  0  0  0
    4.2917   -1.7473    0.9155 C   0  0  0  0  0
    0.4823    4.3517    1.8078 C   0  0  0  0  0
    1.0448    3.2453   -0.3083 C   0  0  0  0  0
    0.6765    3.2074    1.0336 C   0  0  0  0  0
    4.0941   -3.0127    1.4681 C   0  0  0  0  0
    5.5024   -1.0826    1.1104 C   0  0  0  0  0
    0.8772    1.1743    0.1843 C   0  0  0  0  0
    3.2132   -1.1077    0.1188 C   0  0  0  0  0
    0.0875    4.3271    3.2462 C   0  0  0  0  0
    0.2180    1.2884    2.5961 C   0  0  0  0  0
    0.8665   -0.3024    0.1387 C   0  0  0  0  0
    1.1646    1.9731   -0.8188 N   0  0  0  0  0
    0.5764    1.8705    1.3220 N   0  0  0  0  0
    2.0178   -0.8927    0.7850 N   0  0  0  0  0
    3.4219   -0.8293   -1.0591 O   0  0  0  0  0
    2.9184   -3.6798    1.2911 O   0  0  0  0  0
    5.7165    0.1547    0.5801 O   0  0  0  0  0
  1  4  1  0  0  0
  2  5  1  0  0  0
  3  8  1  0  0  0
  6 12  1  0  0  0
  7 11  1  0  0  0
  7 14  1  0  0  0
  9 10  1  0  0  0
  9 18  1  0  0  0
 10 19  1  0  0  0
 11 22  1  0  0  0
 12 23  1  0  0  0
 13 19  1  0  0  0
 14 20  1  0  0  0
 15  8  1  0  0  0
 16 19  1  0  0  0
 17 13  1  0  0  0
 17 20  1  0  0  0
  1  3  2  0  0  0
  2  6  2  0  0  0
  4  9  2  0  0  0
  5 11  2  0  0  0
  7 12  2  0  0  0
  8 10  2  0  0  0
 13 18  2  0  0  0
 14 21  2  0  0  0
M  END
> <rmsd>
0.259856403

$$$$
ZINC92125153


 23 25  0  0  0  0  0  0  0  0999 V2000
    1.1796    5.6219    0.8677 C   0  0  0  0  0
    6.3394   -2.9703    2.3752 C   0  0  0  0  0
    0.4746    5.6446   -0.3379 C   0  0  0  0  0
    1.5465    4.4100    1.4662 C   0  0  0  0  0
    5.1257   -3.6316    2.1882 C   0  0  0  0  0
    6.5326   -1.7003    1.8315 C   0  0  0  0  0
    4.2983   -1.7532    0.9139 C   0  0  0  0  0
    0.1112    4.4608   -0.9887 C   0  0  0  0  0
    1.1894    3.2111    0.8263 C   0  0  0  0  0
    0.4871    3.2659   -0.3743 C   0  0  0  0  0
    4.1052   -3.0232    1.4576 C   0  0  0  0  0
    5.5121   -1.0918    1.1008 C   0  0  0  0  0
    0.8799    1.1792    0.2472 C   0  0  0  0  0
    3.2117   -1.1052    0.1350 C   0  0  0  0  0
   -0.6410    4.5355   -2.2748 C   0  0  0  0  0
   -0.3778    1.4595   -1.8984 C   0  0  0  0  0
    0.8665   -0.2971    0.1887 C   0  0  0  0  0
    1.4244    1.9068    1.1965 N   0  0  0  0  0
    0.3027    1.9522   -0.7217 N   0  0  0  0  0
    2.0243   -0.8946    0.8166 N   0  0  0  0  0
    3.4075   -0.8168   -1.0426 O   0  0  0  0  0
    2.9267   -3.6871    1.2880 O   0  0  0  0  0
    5.7218    0.1498    0.5791 O   0  0  0  0  0
  1  4  1  0  0  0
  2  5  1  0  0  0
  3  8  1  0  0  0
  6 12  1  0  0  0
  7 11  1  0  0  0
  7 14  1  0  0  0
  9 10  1  0  0  0
  9 18  1  0  0  0
 10 19  1  0  0  0
 11 22  1  0  0  0
 12 23  1  0  0  0
 13 19  1  0  0  0
 14 20  1  0  0  0
 15  8  1  0  0  0
 16 19  1  0  0  0
 17 13  1  0  0  0
 17 20  1  0  0  0
  1  3  2  0  0  0
  2  6  2  0  0  0
  4  9  2  0  0  0
  5 11  2  0  0  0
  7 12  2  0  0  0
  8 10  2  0  0  0
 13 18  2  0  0  0
 14 21  2  0  0  0
M  END
> <rmsd>
0.253279477

$$$$
ZINC92121887


 23 25  0  0  0  0  0  0  0  0999 V2000
   -4.0617    0.7549   -0.7721 C   0  0  0  0  0
   -3.8017    0.9424    0.5853 C   0  0  0  0  0
   -3.0083    0.5385   -1.6607 C   0  0  0  0  0
    6.4063   -3.1535    2.0637 C   0  0  0  0  0
   -2.4884    0.9135    1.0544 C   0  0  0  0  0
   -1.6950    0.5096   -1.1916 C   0  0  0  0  0
    5.1486   -3.7466    1.9544 C   0  0  0  0  0
    6.6104   -1.8584    1.5873 C   0  0  0  0  0
    4.2992   -1.7498    0.8921 C   0  0  0  0  0
   -1.4350    0.6972    0.1659 C   0  0  0  0  0
    4.0951   -3.0448    1.3686 C   0  0  0  0  0
    5.5569   -1.1566    1.0015 C   0  0  0  0  0
    3.1906   -1.0113    0.2749 C   0  0  0  0  0
    1.4032    0.7243    2.8745 C   0  0  0  0  0
    0.0262    0.9006    2.2268 C   0  0  0  0  0
    2.0233   -0.6140    2.5018 C   0  0  0  0  0
    0.7390   -0.6871    0.3991 C   0  0  0  0  0
    0.0199    0.6653    0.6848 C   0  0  0  0  0
    0.8009    1.7927   -0.0351 C   0  0  0  0  0
    2.0512   -0.7676    1.0457 N   0  0  0  0  0
    3.3617   -0.6480   -0.8878 O   0  0  0  0  0
    2.8740   -3.6432    1.2729 O   0  0  0  0  0
    5.7782    0.1079    0.5433 O   0  0  0  0  0
  1  2  1  0  0  0
  3  6  1  0  0  0
  4  7  1  0  0  0
  5 10  1  0  0  0
  8 12  1  0  0  0
  9 11  1  0  0  0
  9 13  1  0  0  0
 11 22  1  0  0  0
 12 23  1  0  0  0
 13 20  1  0  0  0
 14 15  1  0  0  0
 14 16  1  0  0  0
 15 18  1  0  0  0
 16 20  1  0  0  0
 17 18  1  0  0  0
 17 20  1  0  0  0
 18 10  1  0  0  0
 18 19  1  0  0  0
  1  3  2  0  0  0
  2  5  2  0  0  0
  4  8  2  0  0  0
  6 10  2  0  0  0
  7 11  2  0  0  0
  9 12  2  0  0  0
 13 21  2  0  0  0
M  END
> <rmsd>
0.342168629

$$$$
ZINC92106415


 22 23  0  0  0  0  0  0  0  0999 V2000
    0.6598    3.8403    0.2594 C   0  0  0  0  0
    1.4977    3.1780    1.1565 C   0  0  0  0  0
    6.3514   -2.9647    2.3872 C   0  0  0  0  0
   -0.0692    3.1127   -0.6812 C   0  0  0  0  0
    1.6069    1.7881    1.1128 C   0  0  0  0  0
    5.1430   -3.6358    2.2000 C   0  0  0  0  0
    6.5367   -1.6956    1.8387 C   0  0  0  0  0
    4.3052   -1.7688    0.9156 C   0  0  0  0  0
    0.0398    1.7227   -0.7249 C   0  0  0  0  0
    0.8779    1.0604    0.1721 C   0  0  0  0  0
    4.1199   -3.0379    1.4641 C   0  0  0  0  0
    5.5136   -1.0977    1.1028 C   0  0  0  0  0
    3.2358   -1.1437    0.1456 C   0  0  0  0  0
   -0.7525    0.9688   -1.7428 C   0  0  0  0  0
    0.9998   -0.3340    0.1428 N   0  0  0  0  0
    2.0310   -0.9303    0.8119 N   0  0  0  0  0
    3.4215   -0.8159   -1.0381 O   0  0  0  0  0
    2.9468   -3.7112    1.2944 O   0  0  0  0  0
    5.7156    0.1432    0.5765 O   0  0  0  0  0
   -1.5189    1.7696   -2.5391 F   0  0  0  0  0
    0.0186    0.2411   -2.6024 F   0  0  0  0  0
   -1.6158    0.0772   -1.1772 F   0  0  0  0  0
  1  2  1  0  0  0
  3  6  1  0  0  0
  4  9  1  0  0  0
  5 10  1  0  0  0
  7 12  1  0  0  0
  8 11  1  0  0  0
  8 13  1  0  0  0
 10 15  1  0  0  0
 11 18  1  0  0  0
 12 19  1  0  0  0
 13 16  1  0  0  0
 14  9  1  0  0  0
 14 20  1  0  0  0
 14 21  1  0  0  0
 14 22  1  0  0  0
 15 16  1  0  0  0
  1  4  2  0  0  0
  2  5  2  0  0  0
  3  7  2  0  0  0
  6 11  2  0  0  0
  8 12  2  0  0  0
  9 10  2  0  0  0
 13 17  2  0  0  0
M  END
> <rmsd>
0.245768487

$$$$
ZINC92106490


 22 23  0  0  0  0  0  0  0  0999 V2000
   -0.0849    3.0990   -0.6925 C   0  0  0  0  0
    6.3538   -2.9680    2.3828 C   0  0  0  0  0
    0.6378    3.8413    0.2415 C   0  0  0  0  0
    0.0361    1.7097   -0.7235 C   0  0  0  0  0
    5.1448   -3.6382    2.1965 C   0  0  0  0  0
    6.5392   -1.6984    1.8355 C   0  0  0  0  0
    1.6025    1.8049    1.1133 C   0  0  0  0  0
    4.3064   -1.7693    0.9153 C   0  0  0  0  0
    1.4815    3.1943    1.1444 C   0  0  0  0  0
    0.8798    1.0627    0.1793 C   0  0  0  0  0
    4.1211   -3.0389    1.4627 C   0  0  0  0  0
    5.5155   -1.0991    1.1016 C   0  0  0  0  0
    3.2363   -1.1427    0.1473 C   0  0  0  0  0
    2.2545    3.9882    2.1423 C   0  0  0  0  0
    1.0008   -0.3318    0.1484 N   0  0  0  0  0
    2.0325   -0.9294    0.8155 N   0  0  0  0  0
    3.4206   -0.8139   -1.0363 O   0  0  0  0  0
    2.9473   -3.7113    1.2938 O   0  0  0  0  0
    5.7175    0.1422    0.5763 O   0  0  0  0  0
    2.0388    5.3345    2.0568 F   0  0  0  0  0
    1.9696    3.6640    3.4383 F   0  0  0  0  0
    3.6034    3.8250    2.0123 F   0  0  0  0  0
  1  3  1  0  0  0
  2  5  1  0  0  0
  4 10  1  0  0  0
  6 12  1  0  0  0
  7  9  1  0  0  0
  8 11  1  0  0  0
  8 13  1  0  0  0
 10 15  1  0  0  0
 11 18  1  0  0  0
 12 19  1  0  0  0
 13 16  1  0  0  0
 14  9  1  0  0  0
 14 20  1  0  0  0
 14 21  1  0  0  0
 14 22  1  0  0  0
 15 16  1  0  0  0
  1  4  2  0  0  0
  2  6  2  0  0  0
  3  9  2  0  0  0
  5 11  2  0  0  0
  7 10  2  0  0  0
  8 12  2  0  0  0
 13 17  2  0  0  0
M  END
> <rmsd>
0.243819773

$$$$
ZINC92106490


 22 23  0  0  0  0  0  0  0  0999 V2000
    1.4822    3.1941    1.1432 C   0  0  0  0  0
    6.3532   -2.9682    2.3829 C   0  0  0  0  0
    0.6391    3.8412    0.2399 C   0  0  0  0  0
    1.6024    1.8048    1.1126 C   0  0  0  0  0
    5.1441   -3.6383    2.1966 C   0  0  0  0  0
    6.5386   -1.6987    1.8354 C   0  0  0  0  0
    0.0360    1.7096   -0.7242 C   0  0  0  0  0
    4.3058   -1.7696    0.9152 C   0  0  0  0  0
   -0.0841    3.0990   -0.6937 C   0  0  0  0  0
    0.8793    1.0625    0.1790 C   0  0  0  0  0
    4.1204   -3.0391    1.4627 C   0  0  0  0  0
    5.5149   -1.0994    1.1015 C   0  0  0  0  0
    3.2357   -1.1430    0.1472 C   0  0  0  0  0
   -0.9861    3.7911   -1.6588 C   0  0  0  0  0
    1.0002   -0.3320    0.1481 N   0  0  0  0  0
    2.0320   -0.9296    0.8154 N   0  0  0  0  0
    3.4201   -0.8143   -1.0364 O   0  0  0  0  0
    2.9467   -3.7115    1.2939 O   0  0  0  0  0
    5.7169    0.1419    0.5761 O   0  0  0  0  0
   -1.0050    5.1494   -1.5133 F   0  0  0  0  0
   -0.6545    3.5780   -2.9666 F   0  0  0  0  0
   -2.2862    3.3925   -1.5411 F   0  0  0  0  0
  1  3  1  0  0  0
  2  5  1  0  0  0
  4 10  1  0  0  0
  6 12  1  0  0  0
  7  9  1  0  0  0
  8 11  1  0  0  0
  8 13  1  0  0  0
 10 15  1  0  0  0
 11 18  1  0  0  0
 12 19  1  0  0  0
 13 16  1  0  0  0
 14  9  1  0  0  0
 14 20  1  0  0  0
 14 21  1  0  0  0
 14 22  1  0  0  0
 15 16  1  0  0  0
  1  4  2  0  0  0
  2  6  2  0  0  0
  3  9  2  0  0  0
  5 11  2  0  0  0
  7 10  2  0  0  0
  8 12  2  0  0  0
 13 17  2  0  0  0
M  END
> <rmsd>
0.243857741

$$$$
ZINC92106354


 23 25  0  0  0  0  0  0  0  0999 V2000
    6.3455   -2.9686    2.3671 C   0  0  0  0  0
    5.1332   -3.6331    2.1819 C   0  0  0  0  0
    6.5336   -1.6969    1.8258 C   0  0  0  0  0
    0.2649    4.2969    2.9205 C   0  0  0  0  0
    0.8156    5.6393    1.0025 C   0  0  0  0  0
    0.1088    5.4750    3.6329 C   0  0  0  0  0
    0.6346    6.7574    1.8006 C   0  0  0  0  0
    0.6252    4.3892    1.5808 C   0  0  0  0  0
    4.2970   -1.7542    0.9139 C   0  0  0  0  0
    4.1089   -3.0259    1.4553 C   0  0  0  0  0
    5.5093   -1.0897    1.0992 C   0  0  0  0  0
    0.7999    3.1997    0.7982 C   0  0  0  0  0
    0.8751    1.1926    0.3024 C   0  0  0  0  0
    3.2264   -1.1193    0.1535 C   0  0  0  0  0
    0.8595   -0.3052    0.2013 C   0  0  0  0  0
    0.2850    6.7072    3.1055 N   0  0  0  0  0
    0.6213    1.9575    1.3340 N   0  0  0  0  0
    1.1451    3.2316   -0.4924 N   0  0  0  0  0
    2.0195   -0.9014    0.8241 N   0  0  0  0  0
    3.3984   -0.8160   -1.0381 O   0  0  0  0  0
    1.1965    1.8730   -0.8291 O   0  0  0  0  0
    2.9320   -3.6929    1.2874 O   0  0  0  0  0
    5.7142    0.1538    0.5797 O   0  0  0  0  0
  1  2  1  0  0  0
  3 11  1  0  0  0
  4  8  1  0  0  0
  5  7  1  0  0  0
  6 16  1  0  0  0
  8 12  1  0  0  0
  9 10  1  0  0  0
  9 14  1  0  0  0
 10 22  1  0  0  0
 11 23  1  0  0  0
 12 17  1  0  0  0
 13 21  1  0  0  0
 14 19  1  0  0  0
 15 13  1  0  0  0
 15 19  1  0  0  0
 18 21  1  0  0  0
  1  3  2  0  0  0
  2 10  2  0  0  0
  4  6  2  0  0  0
  5  8  2  0  0  0
  7 16  2  0  0  0
  9 11  2  0  0  0
 12 18  2  0  0  0
 13 17  2  0  0  0
 14 20  2  0  0  0
M  END
> <rmsd>
0.272511065

$$$$
ZINC92107945


 23 25  0  0  0  0  0  0  0  0999 V2000
    3.2669    4.9046    3.8645 C   0  0  0  0  0
    3.5555    4.6636    2.5133 C   0  0  0  0  0
    6.3694   -3.1594    2.2130 C   0  0  0  0  0
    2.3407    4.1125    4.5417 C   0  0  0  0  0
    2.9219    3.6267    1.8206 C   0  0  0  0  0
    5.1061   -3.7329    2.0698 C   0  0  0  0  0
    6.6187   -1.8850    1.7035 C   0  0  0  0  0
    4.3413   -1.7579    0.9072 C   0  0  0  0  0
    1.7159    3.0962    3.8392 C   0  0  0  0  0
    1.9961    2.8417    2.4905 C   0  0  0  0  0
    4.0920   -3.0322    1.4168 C   0  0  0  0  0
    5.6046   -1.1843    1.0505 C   0  0  0  0  0
    3.2616   -1.0117    0.2112 C   0  0  0  0  0
    0.7207    2.0982    4.3374 C   0  0  0  0  0
    0.2396    1.4681    3.0145 C   0  0  0  0  0
   -0.1129    2.2197    0.0693 C   0  0  0  0  0
    0.9817   -0.0553    0.4197 C   0  0  0  0  0
    1.0903    1.4584    0.6164 C   0  0  0  0  0
    1.2622    1.7648    2.0137 N   0  0  0  0  0
    2.1270   -0.7496    0.9626 N   0  0  0  0  0
    3.4147   -0.6924   -0.9649 O   0  0  0  0  0
    2.8646   -3.6113    1.2889 O   0  0  0  0  0
    5.8696    0.0599    0.5610 O   0  0  0  0  0
  1  4  1  0  0  0
  2  5  1  0  0  0
  3  6  1  0  0  0
  7 12  1  0  0  0
  8 11  1  0  0  0
  8 13  1  0  0  0
  9 10  1  0  0  0
 10 19  1  0  0  0
 11 22  1  0  0  0
 12 23  1  0  0  0
 13 20  1  0  0  0
 14  9  1  0  0  0
 14 15  1  0  0  0
 15 19  1  0  0  0
 16 18  1  0  0  0
 17 18  1  0  0  0
 17 20  1  0  0  0
 18 19  1  0  0  0
  1  2  2  0  0  0
  3  7  2  0  0  0
  4  9  2  0  0  0
  5 10  2  0  0  0
  6 11  2  0  0  0
  8 12  2  0  0  0
 13 21  2  0  0  0
M  END
> <rmsd>
0.372149467

$$$$
ZINC92107945


 23 25  0  0  0  0  0  0  0  0999 V2000
    4.7079    1.9359    4.3377 C   0  0  0  0  0
    4.8688    1.9576    2.9446 C   0  0  0  0  0
    6.3695   -3.1589    2.2138 C   0  0  0  0  0
    3.4349    1.8582    4.9010 C   0  0  0  0  0
    3.7588    1.9026    2.0953 C   0  0  0  0  0
    5.1061   -3.7325    2.0705 C   0  0  0  0  0
    6.6187   -1.8847    1.7040 C   0  0  0  0  0
    4.3413   -1.7577    0.9077 C   0  0  0  0  0
    2.3473    1.7953    4.0464 C   0  0  0  0  0
    2.4925    1.8193    2.6534 C   0  0  0  0  0
    4.0921   -3.0320    1.4175 C   0  0  0  0  0
    5.6047   -1.1841    1.0509 C   0  0  0  0  0
    3.2616   -1.0117    0.2115 C   0  0  0  0  0
    0.8947    1.7395    4.3944 C   0  0  0  0  0
    0.2706    1.4044    3.0245 C   0  0  0  0  0
   -0.1129    2.2199    0.0690 C   0  0  0  0  0
    0.9817   -0.0552    0.4197 C   0  0  0  0  0
    1.0904    1.4585    0.6163 C   0  0  0  0  0
    1.2622    1.7651    2.0136 N   0  0  0  0  0
    2.1270   -0.7494    0.9629 N   0  0  0  0  0
    3.4149   -0.6925   -0.9645 O   0  0  0  0  0
    2.8646   -3.6110    1.2896 O   0  0  0  0  0
    5.8698    0.0600    0.5612 O   0  0  0  0  0
  1  4  1  0  0  0
  2  5  1  0  0  0
  3  6  1  0  0  0
  7 12  1  0  0  0
  8 11  1  0  0  0
  8 13  1  0  0  0
  9 10  1  0  0  0
 10 19  1  0  0  0
 11 22  1  0  0  0
 12 23  1  0  0  0
 13 20  1  0  0  0
 14  9  1  0  0  0
 14 15  1  0  0  0
 15 19  1  0  0  0
 16 18  1  0  0  0
 17 18  1  0  0  0
 17 20  1  0  0  0
 18 19  1  0  0  0
  1  2  2  0  0  0
  3  7  2  0  0  0
  4  9  2  0  0  0
  5 10  2  0  0  0
  6 11  2  0  0  0
  8 12  2  0  0  0
 13 21  2  0  0  0
M  END
> <rmsd>
0.372010469

$$$$
ZINC67847552


 23 25  0  0  0  0  0  0  0  0999 V2000
    0.9886    4.4777    0.2542 C   0  0  0  0  0
   -0.3587    4.1213    0.3119 C   0  0  0  0  0
    1.9731    3.4901    0.2832 C   0  0  0  0  0
    6.3585   -2.8834    2.4635 C   0  0  0  0  0
   -0.7215    2.7772    0.3987 C   0  0  0  0  0
    1.6104    2.1460    0.3700 C   0  0  0  0  0
    5.1839   -3.6066    2.2566 C   0  0  0  0  0
    6.5076   -1.6181    1.8956 C   0  0  0  0  0
    4.3075   -1.7992    0.9140 C   0  0  0  0  0
    0.2630    1.7895    0.4278 C   0  0  0  0  0
    4.1583   -3.0645    1.4819 C   0  0  0  0  0
    5.4821   -1.0760    1.1209 C   0  0  0  0  0
    3.2295   -1.2290    0.0980 C   0  0  0  0  0
    1.6557   -1.3806    2.0846 C   0  0  0  0  0
    0.7412   -0.3329    2.7137 C   0  0  0  0  0
    0.8352   -0.6871   -0.1439 C   0  0  0  0  0
   -0.1349    0.3152    0.5233 C   0  0  0  0  0
   -1.4403   -1.1275    1.9982 C   0  0  0  0  0
    1.9798   -1.0383    0.6973 N   0  0  0  0  0
   -0.4612   -0.0436    1.9216 N   0  0  0  0  0
    3.5182   -0.9475   -1.0641 O   0  0  0  0  0
    3.0192   -3.7889    1.2922 O   0  0  0  0  0
    5.6489    0.1620    0.5757 O   0  0  0  0  0
  1  2  1  0  0  0
  3  6  1  0  0  0
  4  7  1  0  0  0
  5 10  1  0  0  0
  8 12  1  0  0  0
  9 11  1  0  0  0
  9 13  1  0  0  0
 11 22  1  0  0  0
 12 23  1  0  0  0
 13 19  1  0  0  0
 14 15  1  0  0  0
 14 19  1  0  0  0
 15 20  1  0  0  0
 16 17  1  0  0  0
 16 19  1  0  0  0
 17 10  1  0  0  0
 17 20  1  0  0  0
 18 20  1  0  0  0
  1  3  2  0  0  0
  2  5  2  0  0  0
  4  8  2  0  0  0
  6 10  2  0  0  0
  7 11  2  0  0  0
  9 12  2  0  0  0
 13 21  2  0  0  0
M  END
> <rmsd>
0.466490656

$$$$
ZINC92125777


 20 21  0  0  0  0  0  0  0  0999 V2000
    6.3493   -2.9625    2.3905 C   0  0  0  0  0
    1.6096    1.7761    1.1121 C   0  0  0  0  0
    5.1415   -3.6342    2.2024 C   0  0  0  0  0
    6.5348   -1.6938    1.8413 C   0  0  0  0  0
    1.5082    3.1662    1.1651 C   0  0  0  0  0
   -0.0589    3.1220   -0.6731 C   0  0  0  0  0
    4.3043   -1.7685    0.9157 C   0  0  0  0  0
    0.8768    1.0589    0.1664 C   0  0  0  0  0
    4.1190   -3.0372    1.4650 C   0  0  0  0  0
    5.5123   -1.0968    1.1039 C   0  0  0  0  0
    0.6740    3.8392    0.2725 C   0  0  0  0  0
    0.0426    1.7319   -0.7262 C   0  0  0  0  0
    3.2356   -1.1443    0.1441 C   0  0  0  0  0
    0.9993   -0.3356    0.1383 N   0  0  0  0  0
    2.0300   -0.9309    0.8090 N   0  0  0  0  0
    3.4225   -0.8173   -1.0396 O   0  0  0  0  0
    2.9464   -3.7111    1.2943 O   0  0  0  0  0
    5.7144    0.1439    0.5768 O   0  0  0  0  0
    0.5482    5.5543    0.3397 Cl  0  0  0  0  0
   -0.8845    0.8818   -1.9105 Cl  0  0  0  0  0
  1  3  1  0  0  0
  2  8  1  0  0  0
  4 10  1  0  0  0
  5 11  1  0  0  0
  6 12  1  0  0  0
  7  9  1  0  0  0
  7 13  1  0  0  0
  8 14  1  0  0  0
  9 17  1  0  0  0
 10 18  1  0  0  0
 11 19  1  0  0  0
 12 20  1  0  0  0
 13 15  1  0  0  0
 14 15  1  0  0  0
  1  4  2  0  0  0
  2  5  2  0  0  0
  3  9  2  0  0  0
  6 11  2  0  0  0
  7 10  2  0  0  0
  8 12  2  0  0  0
 13 16  2  0  0  0
M  END
> <rmsd>
0.247032329

$$$$
ZINC92125777


 20 21  0  0  0  0  0  0  0  0999 V2000
    6.3584   -2.9735    2.3739 C   0  0  0  0  0
    0.5942    1.7414   -0.9899 C   0  0  0  0  0
    5.1486   -3.6428    2.1897 C   0  0  0  0  0
    6.5428   -1.7029    1.8288 C   0  0  0  0  0
    0.4688    3.1306   -0.9873 C   0  0  0  0  0
    0.9148    3.1665    1.3869 C   0  0  0  0  0
    4.3072   -1.7706    0.9151 C   0  0  0  0  0
    0.8798    1.0648    0.1959 C   0  0  0  0  0
    4.1229   -3.0413    1.4603 C   0  0  0  0  0
    5.5171   -1.1014    1.0994 C   0  0  0  0  0
    0.6290    3.8432    0.2010 C   0  0  0  0  0
    1.0402    1.7773    1.3843 C   0  0  0  0  0
    3.2352   -1.1418    0.1519 C   0  0  0  0  0
    1.0001   -0.3298    0.1615 N   0  0  0  0  0
    2.0335   -0.9293    0.8242 N   0  0  0  0  0
    3.4161   -0.8103   -1.0315 O   0  0  0  0  0
    2.9484   -3.7128    1.2933 O   0  0  0  0  0
    5.7182    0.1411    0.5763 O   0  0  0  0  0
    0.4758    5.5574    0.2029 Cl  0  0  0  0  0
    1.3976    0.9788    2.8739 Cl  0  0  0  0  0
  1  3  1  0  0  0
  2  8  1  0  0  0
  4 10  1  0  0  0
  5 11  1  0  0  0
  6 12  1  0  0  0
  7  9  1  0  0  0
  7 13  1  0  0  0
  8 14  1  0  0  0
  9 17  1  0  0  0
 10 18  1  0  0  0
 11 19  1  0  0  0
 12 20  1  0  0  0
 13 15  1  0  0  0
 14 15  1  0  0  0
  1  4  2  0  0  0
  2  5  2  0  0  0
  3  9  2  0  0  0
  6 11  2  0  0  0
  7 10  2  0  0  0
  8 12  2  0  0  0
 13 16  2  0  0  0
M  END
> <rmsd>
0.242960706

$$$$
ZINC92123225


 23 25  0  0  0  0  0  0  0  0999 V2000
    6.3430   -2.9354    2.4139 C   0  0  0  0  0
    0.8889    3.9092    0.3055 C   0  0  0  0  0
    5.1427   -3.6181    2.2171 C   0  0  0  0  0
    6.5226   -1.6669    1.8621 C   0  0  0  0  0
    1.2063    3.2465   -0.8796 C   0  0  0  0  0
    4.3014   -1.7639    0.9164 C   0  0  0  0  0
    0.5553    3.1869    1.4613 C   0  0  0  0  0
    0.5172    1.7811    1.4102 C   0  0  0  0  0
    0.8488    1.1262    0.2144 C   0  0  0  0  0
    4.1219   -3.0324    1.4683 C   0  0  0  0  0
    5.5018   -1.0812    1.1133 C   0  0  0  0  0
    1.1886    1.8555   -0.9245 C   0  0  0  0  0
    3.2146   -1.1402    0.1184 C   0  0  0  0  0
    0.1853    3.9404    2.7145 C   0  0  0  0  0
    0.1874    0.9566    2.6295 C   0  0  0  0  0
    0.2164    3.0730    3.9713 C   0  0  0  0  0
   -0.5105    1.7566    3.7278 C   0  0  0  0  0
    0.8562   -0.3698    0.1352 C   0  0  0  0  0
    2.0089   -0.9402    0.7794 N   0  0  0  0  0
    3.4209   -0.8583   -1.0592 O   0  0  0  0  0
    2.9568   -3.7169    1.2892 O   0  0  0  0  0
    5.6981    0.1594    0.5839 O   0  0  0  0  0
    1.5079    1.2261   -2.0901 O   0  0  0  0  0
  1  3  1  0  0  0
  2  5  1  0  0  0
  4 11  1  0  0  0
  6 10  1  0  0  0
  6 13  1  0  0  0
  7  8  1  0  0  0
  9 12  1  0  0  0
 10 21  1  0  0  0
 11 22  1  0  0  0
 12 23  1  0  0  0
 13 19  1  0  0  0
 14  7  1  0  0  0
 14 16  1  0  0  0
 15  8  1  0  0  0
 15 17  1  0  0  0
 16 17  1  0  0  0
 18  9  1  0  0  0
 18 19  1  0  0  0
  1  4  2  0  0  0
  2  7  2  0  0  0
  3 10  2  0  0  0
  5 12  2  0  0  0
  6 11  2  0  0  0
  8  9  2  0  0  0
 13 20  2  0  0  0
M  END
> <rmsd>
0.286514401

$$$$
ZINC92122758


 23 25  0  0  0  0  0  0  0  0999 V2000
    1.1839    3.2713   -0.8571 C   0  0  0  0  0
    0.8518    3.9174    0.3335 C   0  0  0  0  0
    6.3399   -2.9340    2.4187 C   0  0  0  0  0
    1.1840    1.8777   -0.9178 C   0  0  0  0  0
    0.5198    3.1701    1.4636 C   0  0  0  0  0
    5.1396   -3.6165    2.2207 C   0  0  0  0  0
    6.5206   -1.6662    1.8659 C   0  0  0  0  0
    4.3010   -1.7637    0.9166 C   0  0  0  0  0
    0.8519    1.1303    0.2121 C   0  0  0  0  0
    4.1202   -3.0314    1.4696 C   0  0  0  0  0
    5.5012   -1.0810    1.1148 C   0  0  0  0  0
    0.5199    1.7765    1.4029 C   0  0  0  0  0
    3.2355   -1.1519    0.1307 C   0  0  0  0  0
    1.8117   -0.1098    5.7567 C   0  0  0  0  0
    2.2480   -0.8844    4.5446 C   0  0  0  0  0
    1.0146   -0.0264    4.4845 C   0  0  0  0  0
    0.8578   -0.3687    0.1284 C   0  0  0  0  0
    1.0120    1.2490    3.6690 C   0  0  0  0  0
    2.0145   -0.9422    0.7779 N   0  0  0  0  0
    3.4240   -0.8599   -1.0614 O   0  0  0  0  0
    2.9552   -3.7158    1.2893 O   0  0  0  0  0
    5.6987    0.1589    0.5843 O   0  0  0  0  0
    0.1939    1.0614    2.5159 O   0  0  0  0  0
  1  2  1  0  0  0
  3  6  1  0  0  0
  4  9  1  0  0  0
  5 12  1  0  0  0
  7 11  1  0  0  0
  8 10  1  0  0  0
  8 13  1  0  0  0
 10 21  1  0  0  0
 11 22  1  0  0  0
 12 23  1  0  0  0
 13 19  1  0  0  0
 14 15  1  0  0  0
 14 16  1  0  0  0
 15 16  1  0  0  0
 16 18  1  0  0  0
 17  9  1  0  0  0
 17 19  1  0  0  0
 18 23  1  0  0  0
  1  4  2  0  0  0
  2  5  2  0  0  0
  3  7  2  0  0  0
  6 10  2  0  0  0
  8 11  2  0  0  0
  9 12  2  0  0  0
 13 20  2  0  0  0
M  END
> <rmsd>
0.285036832

$$$$
ZINC92125984


 23 25  0  0  0  0  0  0  0  0999 V2000
   -1.8966    0.3555    4.7637 C   0  0  0  0  0
   -2.0164    1.5975    4.1402 C   0  0  0  0  0
   -0.7750   -0.4389    4.5260 C   0  0  0  0  0
    6.3904   -3.0922    2.1840 C   0  0  0  0  0
   -1.0147    2.0449    3.2788 C   0  0  0  0  0
    0.2267    0.0085    3.6646 C   0  0  0  0  0
    5.1467   -3.7075    2.0427 C   0  0  0  0  0
    6.5925   -1.8051    1.6857 C   0  0  0  0  0
    4.3070   -1.7489    0.9044 C   0  0  0  0  0
    0.1069    1.2503    3.0409 C   0  0  0  0  0
    4.1050   -3.0359    1.4029 C   0  0  0  0  0
    5.5507   -1.1334    1.0458 C   0  0  0  0  0
    3.1977   -1.0337    0.2224 C   0  0  0  0  0
    0.1122    2.2205   -0.1907 C   0  0  0  0  0
    1.5970    2.1706   -0.4112 C   0  0  0  0  0
    0.9702    1.3272    0.6745 C   0  0  0  0  0
    0.8878   -0.1582    0.4542 C   0  0  0  0  0
    1.1967    1.7363    2.1039 C   0  0  0  0  0
    2.0491   -0.8121    0.9785 N   0  0  0  0  0
    3.3323   -0.6978   -0.9513 O   0  0  0  0  0
    2.8975   -3.6558    1.2766 O   0  0  0  0  0
    5.7695    0.1238    0.5670 O   0  0  0  0  0
    1.2397    3.1652    2.1915 O   0  0  0  0  0
  1  2  1  0  0  0
  3  6  1  0  0  0
  4  7  1  0  0  0
  5 10  1  0  0  0
  8 12  1  0  0  0
  9 11  1  0  0  0
  9 13  1  0  0  0
 11 21  1  0  0  0
 12 22  1  0  0  0
 13 19  1  0  0  0
 14 15  1  0  0  0
 14 16  1  0  0  0
 15 16  1  0  0  0
 16 17  1  0  0  0
 16 18  1  0  0  0
 17 19  1  0  0  0
 18 10  1  0  0  0
 18 23  1  0  0  0
  1  3  2  0  0  0
  2  5  2  0  0  0
  4  8  2  0  0  0
  6 10  2  0  0  0
  7 11  2  0  0  0
  9 12  2  0  0  0
 13 20  2  0  0  0
M  END
> <rmsd>
0.318185985

$$$$
ZINC92124918


 23 25  0  0  0  0  0  0  0  0999 V2000
   -0.4826   -2.7955   -1.6348 C   0  0  0  0  0
   -0.8980   -2.0182   -2.7110 C   0  0  0  0  0
    6.5139   -3.2416    1.9866 C   0  0  0  0  0
    0.1161   -2.1924   -0.5269 C   0  0  0  0  0
   -0.7309   -0.6362   -2.6713 C   0  0  0  0  0
    5.2538   -3.8319    1.8907 C   0  0  0  0  0
    6.7085   -1.9358    1.5364 C   0  0  0  0  0
    4.3827   -1.8107    0.8942 C   0  0  0  0  0
    0.3221   -0.8033   -0.4831 C   0  0  0  0  0
   -0.1428   -0.0285   -1.5563 C   0  0  0  0  0
    4.1882   -3.1165    1.3445 C   0  0  0  0  0
    5.6429   -1.2204    0.9901 C   0  0  0  0  0
    3.2482   -1.0488    0.3118 C   0  0  0  0  0
    1.3518    1.2948    0.3889 C   0  0  0  0  0
    0.9662   -0.1499    0.7169 C   0  0  0  0  0
    0.2418    2.0207   -0.3820 C   0  0  0  0  0
   -1.0449    2.1940    0.4388 C   0  0  0  0  0
    0.7487    3.4120   -0.7900 C   0  0  0  0  0
    2.1608   -0.8531    1.1475 N   0  0  0  0  0
    3.3201   -0.6607   -0.8513 O   0  0  0  0  0
   -0.0633    1.3388   -1.6108 O   0  0  0  0  0
    2.9650   -3.7124    1.2613 O   0  0  0  0  0
    5.8550    0.0545    0.5571 O   0  0  0  0  0
  1  2  1  0  0  0
  3  6  1  0  0  0
  4  9  1  0  0  0
  5 10  1  0  0  0
  7 12  1  0  0  0
  8 11  1  0  0  0
  8 13  1  0  0  0
 10 21  1  0  0  0
 11 22  1  0  0  0
 12 23  1  0  0  0
 13 19  1  0  0  0
 14 15  1  0  0  0
 14 16  1  0  0  0
 15  9  1  0  0  0
 15 19  1  0  0  0
 16 17  1  0  0  0
 16 18  1  0  0  0
 16 21  1  0  0  0
  1  4  2  0  0  0
  2  5  2  0  0  0
  3  7  2  0  0  0
  6 11  2  0  0  0
  8 12  2  0  0  0
  9 10  2  0  0  0
 13 20  2  0  0  0
M  END
> <rmsd>
0.417483956

$$$$
ZINC92124884


 23 25  0  0  0  0  0  0  0  0999 V2000
    6.3956   -3.0916    2.1756 C   0  0  0  0  0
   -0.1213    1.9130    2.8951 C   0  0  0  0  0
    2.2877    1.9847    2.7266 C   0  0  0  0  0
    5.1526   -3.7090    2.0359 C   0  0  0  0  0
    6.5940   -1.8031    1.6793 C   0  0  0  0  0
   -0.0395    2.3031    4.2317 C   0  0  0  0  0
    2.3696    2.3749    4.0631 C   0  0  0  0  0
    4.3066   -1.7495    0.9037 C   0  0  0  0  0
    1.0423    1.7537    2.1424 C   0  0  0  0  0
    1.2059    2.5340    4.8158 C   0  0  0  0  0
    4.1082   -3.0380    1.3999 C   0  0  0  0  0
    5.5495   -1.1320    1.0434 C   0  0  0  0  0
    3.2146   -1.0480    0.2381 C   0  0  0  0  0
    0.1906    2.2121   -0.2860 C   0  0  0  0  0
    1.6843    2.1532   -0.3597 C   0  0  0  0  0
    0.9534    1.3272    0.6837 C   0  0  0  0  0
    2.5906    3.1365    6.6530 C   0  0  0  0  0
    0.8836   -0.1637    0.4649 C   0  0  0  0  0
    2.0578   -0.8232    0.9896 N   0  0  0  0  0
    3.3257   -0.6964   -0.9476 O   0  0  0  0  0
    2.9014   -3.6598    1.2752 O   0  0  0  0  0
    5.7649    0.1266    0.5667 O   0  0  0  0  0
    1.2857    2.9173    6.1192 O   0  0  0  0  0
  1  4  1  0  0  0
  2  9  1  0  0  0
  3  7  1  0  0  0
  5 12  1  0  0  0
  6 10  1  0  0  0
  8 11  1  0  0  0
  8 13  1  0  0  0
 10 23  1  0  0  0
 11 21  1  0  0  0
 12 22  1  0  0  0
 13 19  1  0  0  0
 14 15  1  0  0  0
 14 16  1  0  0  0
 15 16  1  0  0  0
 16  9  1  0  0  0
 16 18  1  0  0  0
 17 23  1  0  0  0
 18 19  1  0  0  0
  1  5  2  0  0  0
  2  6  2  0  0  0
  3  9  2  0  0  0
  4 11  2  0  0  0
  7 10  2  0  0  0
  8 12  2  0  0  0
 13 20  2  0  0  0
M  END
> <rmsd>
0.333839387

$$$$
ZINC92122441


 23 25  0  0  0  0  0  0  0  0999 V2000
    1.1750    3.2580   -0.8758 C   0  0  0  0  0
    0.8489    3.9130    0.3117 C   0  0  0  0  0
    6.3446   -2.9389    2.4105 C   0  0  0  0  0
    1.1761    1.8640   -0.9260 C   0  0  0  0  0
    0.5240    3.1740    1.4492 C   0  0  0  0  0
    5.1434   -3.6202    2.2145 C   0  0  0  0  0
    6.5249   -1.6702    1.8596 C   0  0  0  0  0
    4.3027   -1.7642    0.9162 C   0  0  0  0  0
    0.8512    1.1251    0.2116 C   0  0  0  0  0
    4.1224   -3.0329    1.4673 C   0  0  0  0  0
    5.5039   -1.0829    1.1123 C   0  0  0  0  0
    0.5251    1.7800    1.3992 C   0  0  0  0  0
    3.2156   -1.1388    0.1198 C   0  0  0  0  0
    1.0891    1.3108    5.8023 C   0  0  0  0  0
    0.4969    2.2535    4.7380 C   0  0  0  0  0
    1.0074    0.1857    4.7537 C   0  0  0  0  0
    1.0476    1.2846    3.6657 C   0  0  0  0  0
    0.8580   -0.3661    0.1398 C   0  0  0  0  0
    2.0124   -0.9388    0.7831 N   0  0  0  0  0
    3.4208   -0.8562   -1.0577 O   0  0  0  0  0
    2.9564   -3.7161    1.2890 O   0  0  0  0  0
    5.7009    0.1579    0.5836 O   0  0  0  0  0
    0.2059    1.0727    2.5204 O   0  0  0  0  0
  1  2  1  0  0  0
  3  6  1  0  0  0
  4  9  1  0  0  0
  5 12  1  0  0  0
  7 11  1  0  0  0
  8 10  1  0  0  0
  8 13  1  0  0  0
 10 21  1  0  0  0
 11 22  1  0  0  0
 12 23  1  0  0  0
 13 19  1  0  0  0
 14 15  1  0  0  0
 14 16  1  0  0  0
 15 17  1  0  0  0
 16 17  1  0  0  0
 17 23  1  0  0  0
 18  9  1  0  0  0
 18 19  1  0  0  0
  1  4  2  0  0  0
  2  5  2  0  0  0
  3  7  2  0  0  0
  6 10  2  0  0  0
  8 11  2  0  0  0
  9 12  2  0  0  0
 13 20  2  0  0  0
M  END
> <rmsd>
0.282278866

$$$$
ZINC92124920


 23 25  0  0  0  0  0  0  0  0999 V2000
   -1.7373   -2.3526    2.0087 C   0  0  0  0  0
   -2.7034   -1.4142    2.3580 C   0  0  0  0  0
    6.4349   -3.1769    2.1651 C   0  0  0  0  0
   -0.5497   -1.9395    1.4022 C   0  0  0  0  0
   -2.4880   -0.0647    2.0887 C   0  0  0  0  0
    5.1789   -3.7684    2.0308 C   0  0  0  0  0
    6.6574   -1.8921    1.6698 C   0  0  0  0  0
    4.3677   -1.7903    0.9055 C   0  0  0  0  0
   -0.3060   -0.5799    1.1464 C   0  0  0  0  0
   -1.3036    0.3508    1.4708 C   0  0  0  0  0
    4.1453   -3.0752    1.4009 C   0  0  0  0  0
    5.6238   -1.1988    1.0399 C   0  0  0  0  0
    3.2671   -1.0520    0.2340 C   0  0  0  0  0
    1.1543    1.3752    0.6444 C   0  0  0  0  0
    0.9749   -0.1343    0.4855 C   0  0  0  0  0
   -0.1502    2.1329    0.3598 C   0  0  0  0  0
   -0.6123    2.0026   -1.0993 C   0  0  0  0  0
    0.0631    3.6219    0.6711 C   0  0  0  0  0
    2.1383   -0.8177    1.0037 N   0  0  0  0  0
    3.3996   -0.7145   -0.9394 O   0  0  0  0  0
   -1.2076    1.6970    1.2321 O   0  0  0  0  0
    2.9254   -3.6718    1.2813 O   0  0  0  0  0
    5.8627    0.0559    0.5639 O   0  0  0  0  0
  1  2  1  0  0  0
  3  6  1  0  0  0
  4  9  1  0  0  0
  5 10  1  0  0  0
  7 12  1  0  0  0
  8 11  1  0  0  0
  8 13  1  0  0  0
 10 21  1  0  0  0
 11 22  1  0  0  0
 12 23  1  0  0  0
 13 19  1  0  0  0
 14 15  1  0  0  0
 14 16  1  0  0  0
 15  9  1  0  0  0
 15 19  1  0  0  0
 16 17  1  0  0  0
 16 18  1  0  0  0
 16 21  1  0  0  0
  1  4  2  0  0  0
  2  5  2  0  0  0
  3  7  2  0  0  0
  6 11  2  0  0  0
  8 12  2  0  0  0
  9 10  2  0  0  0
 13 20  2  0  0  0
M  END
> <rmsd>
0.445950747

$$$$
ZINC92124920


 23 25  0  0  0  0  0  0  0  0999 V2000
    2.0278    3.2682    0.5374 C   0  0  0  0  0
    1.4023    3.7374   -0.6135 C   0  0  0  0  0
    6.5323   -3.0934    2.0441 C   0  0  0  0  0
    1.8438    1.9448    0.9419 C   0  0  0  0  0
    0.5823    2.8876   -1.3522 C   0  0  0  0  0
    5.3132   -3.7610    1.9270 C   0  0  0  0  0
    6.6557   -1.7812    1.5873 C   0  0  0  0  0
    4.3408   -1.8043    0.8960 C   0  0  0  0  0
    1.0403    1.0677    0.1947 C   0  0  0  0  0
    0.3873    1.5640   -0.9428 C   0  0  0  0  0
    4.2175   -3.1165    1.3528 C   0  0  0  0  0
    5.5599   -1.1367    1.0133 C   0  0  0  0  0
    3.1740   -1.1179    0.2839 C   0  0  0  0  0
    0.2384   -1.1852   -0.5040 C   0  0  0  0  0
    0.8368   -0.3607    0.6355 C   0  0  0  0  0
   -0.9045   -0.4367   -1.2041 C   0  0  0  0  0
   -2.1158   -0.2020   -0.2889 C   0  0  0  0  0
   -1.3644   -1.2576   -2.4182 C   0  0  0  0  0
    2.0578   -0.9832    1.0947 N   0  0  0  0  0
    3.2468   -0.7342   -0.8806 O   0  0  0  0  0
   -0.4568    0.8250   -1.7299 O   0  0  0  0  0
    3.0353   -3.7874    1.2490 O   0  0  0  0  0
    5.7023    0.1459    0.5743 O   0  0  0  0  0
  1  2  1  0  0  0
  3  6  1  0  0  0
  4  9  1  0  0  0
  5 10  1  0  0  0
  7 12  1  0  0  0
  8 11  1  0  0  0
  8 13  1  0  0  0
 10 21  1  0  0  0
 11 22  1  0  0  0
 12 23  1  0  0  0
 13 19  1  0  0  0
 14 15  1  0  0  0
 14 16  1  0  0  0
 15  9  1  0  0  0
 15 19  1  0  0  0
 16 17  1  0  0  0
 16 18  1  0  0  0
 16 21  1  0  0  0
  1  4  2  0  0  0
  2  5  2  0  0  0
  3  7  2  0  0  0
  6 11  2  0  0  0
  8 12  2  0  0  0
  9 10  2  0  0  0
 13 20  2  0  0  0
M  END
> <rmsd>
0.432183951

$$$$
ZINC92126991


 22 23  0  0  0  0  0  0  0  0999 V2000
    6.4699   -3.1991    2.0167 C   0  0  0  0  0
    5.2057   -3.7666    1.8582 C   0  0  0  0  0
    6.7024   -1.8873    1.6032 C   0  0  0  0  0
    4.4064   -1.7108    0.8726 C   0  0  0  0  0
    4.1739   -3.0226    1.2861 C   0  0  0  0  0
    5.6706   -1.1431    1.0311 C   0  0  0  0  0
    3.3177   -0.9255    0.2681 C   0  0  0  0  0
    2.6612   -0.0912    2.5721 C   0  0  0  0  0
    1.3464    0.2852    3.2519 C   0  0  0  0  0
    1.3708    0.5654    0.5545 C   0  0  0  0  0
    1.0767    1.8424    1.3585 C   0  0  0  0  0
    0.1601    2.9338   -0.6914 C   0  0  0  0  0
   -0.1081    2.5817    0.7324 C   0  0  0  0  0
    1.2077    2.6696    3.6388 C   0  0  0  0  0
    0.3757    2.7110    4.9036 C   0  0  0  0  0
    2.5068   -0.1650    1.1154 N   0  0  0  0  0
    0.7857    1.5601    2.7810 N   0  0  0  0  0
    3.1989   -0.9961   -0.9543 O   0  0  0  0  0
    2.9460   -3.5966    1.1416 O   0  0  0  0  0
    5.9194    0.1370    0.6347 O   0  0  0  0  0
   -0.7977    3.3485    4.6647 F   0  0  0  0  0
    1.0285    3.4445    5.8411 F   0  0  0  0  0
  1  2  1  0  0  0
  3  6  1  0  0  0
  4  5  1  0  0  0
  4  7  1  0  0  0
  5 19  1  0  0  0
  6 20  1  0  0  0
  7 16  1  0  0  0
  8  9  1  0  0  0
  8 16  1  0  0  0
  9 17  1  0  0  0
 10 11  1  0  0  0
 10 16  1  0  0  0
 11 13  1  0  0  0
 11 17  1  0  0  0
 12 13  1  0  0  0
 14 15  1  0  0  0
 14 17  1  0  0  0
 15 21  1  0  0  0
 15 22  1  0  0  0
  1  3  2  0  0  0
  2  5  2  0  0  0
  4  6  2  0  0  0
  7 18  2  0  0  0
M  END
> <rmsd>
0.457258731

$$$$
ZINC92122226


 23 25  0  0  0  0  0  0  0  0999 V2000
    6.2775   -3.1164    2.3104 C   0  0  0  0  0
   -4.8910   -0.3868   -0.5726 C   0  0  0  0  0
    5.0088   -3.6724    2.1469 C   0  0  0  0  0
    6.5629   -1.8607    1.7743 C   0  0  0  0  0
   -3.6178    0.1545   -0.6005 C   0  0  0  0  0
   -5.1993   -1.2604    0.4507 C   0  0  0  0  0
    4.3110   -1.7173    0.9111 C   0  0  0  0  0
    4.0255   -2.9729    1.4473 C   0  0  0  0  0
    5.5797   -1.1611    1.0746 C   0  0  0  0  0
   -2.7373   -0.2134    0.3970 C   0  0  0  0  0
    3.2640   -0.9724    0.1653 C   0  0  0  0  0
   -0.0246    2.2639   -0.1838 C   0  0  0  0  0
    1.1726    1.5387    0.4191 C   0  0  0  0  0
   -1.3341    1.7967    0.4459 C   0  0  0  0  0
   -0.3237   -0.4384    0.9078 C   0  0  0  0  0
    0.9984    0.0257    0.2850 C   0  0  0  0  0
   -4.3177   -1.6027    1.4138 N   0  0  0  0  0
   -3.0664   -1.0704    1.3865 N   0  0  0  0  0
   -1.4490    0.3340    0.3681 N   0  0  0  0  0
    2.1148   -0.6717    0.8777 N   0  0  0  0  0
    3.4554   -0.6876   -1.0140 O   0  0  0  0  0
    2.7922   -3.5348    1.3003 O   0  0  0  0  0
    5.8798    0.0647    0.5597 O   0  0  0  0  0
  1  3  1  0  0  0
  2  6  1  0  0  0
  4  9  1  0  0  0
  5 10  1  0  0  0
  7  8  1  0  0  0
  7 11  1  0  0  0
  8 22  1  0  0  0
  9 23  1  0  0  0
 10 19  1  0  0  0
 11 20  1  0  0  0
 12 13  1  0  0  0
 12 14  1  0  0  0
 13 16  1  0  0  0
 14 19  1  0  0  0
 15 16  1  0  0  0
 15 19  1  0  0  0
 16 20  1  0  0  0
 17 18  1  0  0  0
  1  4  2  0  0  0
  2  5  2  0  0  0
  3  8  2  0  0  0
  6 17  2  0  0  0
  7  9  2  0  0  0
 10 18  2  0  0  0
 11 21  2  0  0  0
M  END
> <rmsd>
0.398742527

$$$$
ZINC92124224


 22 23  0  0  0  0  0  0  0  0999 V2000
    6.3368   -2.9315    2.4235 C   0  0  0  0  0
    5.1369   -3.6143    2.2242 C   0  0  0  0  0
    6.5185   -1.6644    1.8692 C   0  0  0  0  0
    0.8417    3.9156    0.3547 C   0  0  0  0  0
    4.3005   -1.7630    0.9164 C   0  0  0  0  0
    0.8526    1.1300    0.2024 C   0  0  0  0  0
    4.1188   -3.0302    1.4706 C   0  0  0  0  0
    5.5004   -1.0803    1.1156 C   0  0  0  0  0
    0.5103    3.1546    1.4756 C   0  0  0  0  0
    1.1785    3.2837   -0.8425 C   0  0  0  0  0
    0.5158    1.7618    1.3996 C   0  0  0  0  0
    1.1840    1.8910   -0.9186 C   0  0  0  0  0
    3.2363   -1.1523    0.1278 C   0  0  0  0  0
    0.8585   -0.3692    0.1207 C   0  0  0  0  0
    2.0142   -0.9419    0.7728 N   0  0  0  0  0
    3.4268   -0.8620   -1.0642 O   0  0  0  0  0
    2.9540   -3.7148    1.2894 O   0  0  0  0  0
    5.6988    0.1591    0.5840 O   0  0  0  0  0
    0.1876    3.7620    2.6249 F   0  0  0  0  0
    1.4974    4.0149   -1.9185 F   0  0  0  0  0
    0.1969    1.0387    2.4821 F   0  0  0  0  0
    1.5098    1.2932   -2.0733 F   0  0  0  0  0
  1  2  1  0  0  0
  3  8  1  0  0  0
  4  9  1  0  0  0
  5  7  1  0  0  0
  5 13  1  0  0  0
  6 11  1  0  0  0
  7 17  1  0  0  0
  8 18  1  0  0  0
  9 19  1  0  0  0
 10 12  1  0  0  0
 10 20  1  0  0  0
 11 21  1  0  0  0
 12 22  1  0  0  0
 13 15  1  0  0  0
 14  6  1  0  0  0
 14 15  1  0  0  0
  1  3  2  0  0  0
  2  7  2  0  0  0
  4 10  2  0  0  0
  5  8  2  0  0  0
  6 12  2  0  0  0
  9 11  2  0  0  0
 13 16  2  0  0  0
M  END
> <rmsd>
0.284153938

$$$$
ZINC92125809


 22 23  0  0  0  0  0  0  0  0999 V2000
    6.3177   -2.9370    2.4250 C   0  0  0  0  0
    5.1115   -3.6088    2.2266 C   0  0  0  0  0
    6.5113   -1.6724    1.8693 C   0  0  0  0  0
    1.1792    2.0591   -0.8045 C   0  0  0  0  0
    4.2926   -1.7513    0.9165 C   0  0  0  0  0
    0.8720    1.1732    0.1990 C   0  0  0  0  0
    4.0989   -3.0160    1.4723 C   0  0  0  0  0
    5.4987   -1.0795    1.1150 C   0  0  0  0  0
    0.5705    1.9874    1.3072 C   0  0  0  0  0
    3.2341   -1.1315    0.1272 C   0  0  0  0  0
    1.2684    4.5604   -0.9293 C   0  0  0  0  0
    0.8638   -0.3260    0.1190 C   0  0  0  0  0
    0.1727    1.5603    2.6601 C   0  0  0  0  0
    0.6767    3.2904    1.0336 N   0  0  0  0  0
    1.0484    3.3018   -0.2577 N   0  0  0  0  0
    2.0140   -0.9088    0.7719 N   0  0  0  0  0
    3.4274   -0.8443   -1.0651 O   0  0  0  0  0
    2.9278   -3.6899    1.2918 O   0  0  0  0  0
    5.7088    0.1573    0.5819 O   0  0  0  0  0
    0.0970    0.1989    2.8239 F   0  0  0  0  0
    1.0222    1.9754    3.6559 F   0  0  0  0  0
   -1.0615    2.0269    3.0359 F   0  0  0  0  0
  1  2  1  0  0  0
  3  8  1  0  0  0
  4 15  1  0  0  0
  5  7  1  0  0  0
  5 10  1  0  0  0
  6  9  1  0  0  0
  7 18  1  0  0  0
  8 19  1  0  0  0
 10 16  1  0  0  0
 11 15  1  0  0  0
 12  6  1  0  0  0
 12 16  1  0  0  0
 13  9  1  0  0  0
 13 20  1  0  0  0
 13 21  1  0  0  0
 13 22  1  0  0  0
 15 14  1  0  0  0
  1  3  2  0  0  0
  2  7  2  0  0  0
  4  6  2  0  0  0
  5  8  2  0  0  0
  9 14  2  0  0  0
 10 17  2  0  0  0
M  END
> <rmsd>
0.266513944

$$$$
ZINC71751238


 23 24  0  0  0  0  0  0  0  0999 V2000
    0.9400    3.3113   -0.8375 C   0  0  0  0  0
    6.3234   -2.9197    2.4457 C   0  0  0  0  0
    0.8260    3.9151    0.4147 C   0  0  0  0  0
    0.9509    1.9204   -0.9427 C   0  0  0  0  0
    5.1252   -3.6041    2.2418 C   0  0  0  0  0
    6.5086   -1.6555    1.8858 C   0  0  0  0  0
    0.7338    1.7373    1.4565 C   0  0  0  0  0
    4.2973   -1.7601    0.9181 C   0  0  0  0  0
    0.7229    3.1281    1.5617 C   0  0  0  0  0
    0.8478    1.1334    0.2043 C   0  0  0  0  0
    4.1122   -3.0243    1.4780 C   0  0  0  0  0
    5.4956   -1.0758    1.1219 C   0  0  0  0  0
    3.2188   -1.1429    0.1040 C   0  0  0  0  0
   -0.4382   -0.9944    0.5875 C   0  0  0  0  0
    0.5995    3.7745    2.9000 C   0  0  0  0  0
   -1.5697   -3.0268    1.0260 C   0  0  0  0  0
    0.8602   -0.3729    0.0903 C   0  0  0  0  0
    2.0093   -0.9395    0.7526 N   0  0  0  0  0
    3.4372   -0.8702   -1.0735 O   0  0  0  0  0
   -1.3738   -0.3284    1.0190 O   0  0  0  0  0
    2.9489   -3.7104    1.2924 O   0  0  0  0  0
    5.6972    0.1606    0.5848 O   0  0  0  0  0
   -0.4052   -2.3562    0.5330 O   0  0  0  0  0
  1  4  1  0  0  0
  2  5  1  0  0  0
  3  9  1  0  0  0
  6 12  1  0  0  0
  7 10  1  0  0  0
  8 11  1  0  0  0
  8 13  1  0  0  0
 11 21  1  0  0  0
 12 22  1  0  0  0
 13 18  1  0  0  0
 14 23  1  0  0  0
 15  9  1  0  0  0
 16 23  1  0  0  0
 17 10  1  0  0  0
 17 14  1  0  0  0
 17 18  1  0  0  0
  1  3  2  0  0  0
  2  6  2  0  0  0
  4 10  2  0  0  0
  5 11  2  0  0  0
  7  9  2  0  0  0
  8 12  2  0  0  0
 13 19  2  0  0  0
 14 20  2  0  0  0
M  END
> <rmsd>
0.285381258

$$$$
ZINC71751238


 23 24  0  0  0  0  0  0  0  0999 V2000
    0.7215    3.1278    1.5611 C   0  0  0  0  0
    6.3234   -2.9200    2.4454 C   0  0  0  0  0
    0.8241    3.9150    0.4141 C   0  0  0  0  0
    0.7336    1.7370    1.4558 C   0  0  0  0  0
    5.1252   -3.6043    2.2415 C   0  0  0  0  0
    6.5087   -1.6559    1.8855 C   0  0  0  0  0
    0.9508    1.9204   -0.9434 C   0  0  0  0  0
    4.2975   -1.7604    0.9177 C   0  0  0  0  0
    0.9387    3.3113   -0.8381 C   0  0  0  0  0
    0.8482    1.1333    0.2036 C   0  0  0  0  0
    4.1123   -3.0245    1.4776 C   0  0  0  0  0
    5.4958   -1.0761    1.1216 C   0  0  0  0  0
    3.2191   -1.1432    0.1035 C   0  0  0  0  0
   -0.4379   -0.9944    0.5868 C   0  0  0  0  0
    1.0499    4.1537   -2.0639 C   0  0  0  0  0
   -1.5695   -3.0267    1.0254 C   0  0  0  0  0
    0.8605   -0.3730    0.0896 C   0  0  0  0  0
    2.0095   -0.9396    0.7520 N   0  0  0  0  0
    3.4376   -0.8705   -1.0740 O   0  0  0  0  0
   -1.3735   -0.3284    1.0182 O   0  0  0  0  0
    2.9490   -3.7105    1.2921 O   0  0  0  0  0
    5.6975    0.1603    0.5844 O   0  0  0  0  0
   -0.4050   -2.3562    0.5324 O   0  0  0  0  0
  1  4  1  0  0  0
  2  5  1  0  0  0
  3  9  1  0  0  0
  6 12  1  0  0  0
  7 10  1  0  0  0
  8 11  1  0  0  0
  8 13  1  0  0  0
 11 21  1  0  0  0
 12 22  1  0  0  0
 13 18  1  0  0  0
 14 23  1  0  0  0
 15  9  1  0  0  0
 16 23  1  0  0  0
 17 10  1  0  0  0
 17 14  1  0  0  0
 17 18  1  0  0  0
  1  3  2  0  0  0
  2  6  2  0  0  0
  4 10  2  0  0  0
  5 11  2  0  0  0
  7  9  2  0  0  0
  8 12  2  0  0  0
 13 19  2  0  0  0
 14 20  2  0  0  0
M  END
> <rmsd>
0.285169065

$$$$
ZINC92119847


 23 24  0  0  0  0  0  0  0  0999 V2000
    6.9475    1.0986    4.8128 C   0  0  0  0  0
    5.9584    0.1379    5.0227 C   0  0  0  0  0
    6.6089    2.3444    4.2843 C   0  0  0  0  0
    6.3736   -3.1772    2.1908 C   0  0  0  0  0
    4.6306    0.4227    4.7041 C   0  0  0  0  0
    5.2811    2.6293    3.9657 C   0  0  0  0  0
    5.1062   -3.7431    2.0531 C   0  0  0  0  0
    6.6265   -1.9016    1.6863 C   0  0  0  0  0
    4.3445   -1.7578    0.9061 C   0  0  0  0  0
    4.2919    1.6684    4.1757 C   0  0  0  0  0
    4.0916   -3.0334    1.4107 C   0  0  0  0  0
    5.6120   -1.1919    1.0439 C   0  0  0  0  0
    3.2642   -1.0020    0.2213 C   0  0  0  0  0
   -0.1615    2.1900    0.0449 C   0  0  0  0  0
    2.8639    1.9754    3.8326 C   0  0  0  0  0
    0.9912   -0.0340    0.4503 C   0  0  0  0  0
    1.2755    1.8662    2.1040 C   0  0  0  0  0
    1.0670    1.4875    0.6328 C   0  0  0  0  0
    2.1301   -0.7338    0.9789 N   0  0  0  0  0
    3.4113   -0.6773   -0.9540 O   0  0  0  0  0
    2.8602   -3.6050    1.2880 O   0  0  0  0  0
    5.8806    0.0534    0.5592 O   0  0  0  0  0
    2.6189    1.5969    2.4851 O   0  0  0  0  0
  1  2  1  0  0  0
  3  6  1  0  0  0
  4  7  1  0  0  0
  5 10  1  0  0  0
  8 12  1  0  0  0
  9 11  1  0  0  0
  9 13  1  0  0  0
 11 21  1  0  0  0
 12 22  1  0  0  0
 13 19  1  0  0  0
 14 18  1  0  0  0
 15 10  1  0  0  0
 15 23  1  0  0  0
 16 18  1  0  0  0
 16 19  1  0  0  0
 17 18  1  0  0  0
 17 23  1  0  0  0
  1  3  2  0  0  0
  2  5  2  0  0  0
  4  8  2  0  0  0
  6 10  2  0  0  0
  7 11  2  0  0  0
  9 12  2  0  0  0
 13 20  2  0  0  0
M  END
> <rmsd>
0.394679546

$$$$
ZINC92119847


 23 24  0  0  0  0  0  0  0  0999 V2000
    4.3436   -0.8065    6.8405 C   0  0  0  0  0
    3.0771   -1.3304    6.5816 C   0  0  0  0  0
    4.6974    0.4447    6.3357 C   0  0  0  0  0
    6.4351   -3.2090    2.0789 C   0  0  0  0  0
    2.1643   -0.6031    5.8177 C   0  0  0  0  0
    3.7847    1.1721    5.5718 C   0  0  0  0  0
    5.1693   -3.7836    1.9647 C   0  0  0  0  0
    6.6600   -1.9170    1.6035 C   0  0  0  0  0
    4.3532   -1.7744    0.8997 C   0  0  0  0  0
    2.5181    0.6482    5.3128 C   0  0  0  0  0
    4.1283   -3.0664    1.3751 C   0  0  0  0  0
    5.6190   -1.1998    1.0139 C   0  0  0  0  0
    3.2448   -1.0106    0.2710 C   0  0  0  0  0
    0.0764    2.1956   -0.1034 C   0  0  0  0  0
    1.5368    1.4310    4.4908 C   0  0  0  0  0
    0.9711   -0.0729    0.5988 C   0  0  0  0  0
    0.7947    1.8050    2.2926 C   0  0  0  0  0
    1.0385    1.4435    0.8226 C   0  0  0  0  0
    2.1327   -0.7757    1.0713 N   0  0  0  0  0
    3.3515   -0.6512   -0.8986 O   0  0  0  0  0
    2.8990   -3.6469    1.2747 O   0  0  0  0  0
    5.8605    0.0615    0.5569 O   0  0  0  0  0
    1.7027    1.0901    3.1215 O   0  0  0  0  0
  1  2  1  0  0  0
  3  6  1  0  0  0
  4  7  1  0  0  0
  5 10  1  0  0  0
  8 12  1  0  0  0
  9 11  1  0  0  0
  9 13  1  0  0  0
 11 21  1  0  0  0
 12 22  1  0  0  0
 13 19  1  0  0  0
 14 18  1  0  0  0
 15 10  1  0  0  0
 15 23  1  0  0  0
 16 18  1  0  0  0
 16 19  1  0  0  0
 17 18  1  0  0  0
 17 23  1  0  0  0
  1  3  2  0  0  0
  2  5  2  0  0  0
  4  8  2  0  0  0
  6 10  2  0  0  0
  7 11  2  0  0  0
  9 12  2  0  0  0
 13 20  2  0  0  0
M  END
> <rmsd>
0.338717341

$$$$
ZINC92107584


 23 24  0  0  0  0  0  0  0  0999 V2000
    6.3337   -2.9251    2.4309 C   0  0  0  0  0
    0.9699    1.9038   -0.9566 C   0  0  0  0  0
    0.7606    1.7579    1.4459 C   0  0  0  0  0
    5.1356   -3.6103    2.2300 C   0  0  0  0  0
    6.5147   -1.6587    1.8750 C   0  0  0  0  0
    0.9756    3.2960   -0.8716 C   0  0  0  0  0
    0.7663    3.1502    1.5309 C   0  0  0  0  0
    4.2993   -1.7627    0.9168 C   0  0  0  0  0
    0.8624    1.1348    0.2022 C   0  0  0  0  0
    0.8737    3.9193    0.3721 C   0  0  0  0  0
    4.1183   -3.0292    1.4730 C   0  0  0  0  0
    5.4976   -1.0775    1.1179 C   0  0  0  0  0
    3.2360   -1.1551    0.1247 C   0  0  0  0  0
   -0.4297   -0.9901    0.6580 C   0  0  0  0  0
    1.6265    6.8677   -1.1862 C   0  0  0  0  0
    2.6917    6.7237    1.0933 C   0  0  0  0  0
    0.8570   -0.3759    0.1102 C   0  0  0  0  0
    2.0351    5.9529   -0.0417 C   0  0  0  0  0
    2.0120   -0.9456    0.7662 N   0  0  0  0  0
    3.4290   -0.8665   -1.0676 O   0  0  0  0  0
    2.9551   -3.7160    1.2900 O   0  0  0  0  0
    5.6951    0.1611    0.5844 O   0  0  0  0  0
    0.8805    5.2778    0.4550 O   0  0  0  0  0
  1  4  1  0  0  0
  2  9  1  0  0  0
  3  7  1  0  0  0
  5 12  1  0  0  0
  6 10  1  0  0  0
  8 11  1  0  0  0
  8 13  1  0  0  0
 10 23  1  0  0  0
 11 21  1  0  0  0
 12 22  1  0  0  0
 13 19  1  0  0  0
 14 17  1  0  0  0
 15 18  1  0  0  0
 16 18  1  0  0  0
 17  9  1  0  0  0
 17 19  1  0  0  0
 18 23  1  0  0  0
  1  5  2  0  0  0
  2  6  2  0  0  0
  3  9  2  0  0  0
  4 11  2  0  0  0
  7 10  2  0  0  0
  8 12  2  0  0  0
 13 20  2  0  0  0
M  END
> <rmsd>
0.29113546

$$$$
ZINC92107584


 23 24  0  0  0  0  0  0  0  0999 V2000
    6.3334   -2.9252    2.4312 C   0  0  0  0  0
    0.9695    1.9037   -0.9563 C   0  0  0  0  0
    0.7603    1.7578    1.4462 C   0  0  0  0  0
    5.1353   -3.6104    2.2303 C   0  0  0  0  0
    6.5144   -1.6588    1.8752 C   0  0  0  0  0
    0.9752    3.2959   -0.8714 C   0  0  0  0  0
    0.7660    3.1501    1.5312 C   0  0  0  0  0
    4.2990   -1.7628    0.9171 C   0  0  0  0  0
    0.8621    1.1346    0.2025 C   0  0  0  0  0
    0.8733    3.9192    0.3724 C   0  0  0  0  0
    4.1180   -3.0292    1.4733 C   0  0  0  0  0
    5.4972   -1.0776    1.1181 C   0  0  0  0  0
    3.2357   -1.1553    0.1250 C   0  0  0  0  0
   -0.4301   -0.9902    0.6584 C   0  0  0  0  0
   -0.9841    6.7612    0.7739 C   0  0  0  0  0
    0.4612    6.8798   -1.2873 C   0  0  0  0  0
    0.8566   -0.3761    0.1105 C   0  0  0  0  0
   -0.1573    5.9752   -0.2324 C   0  0  0  0  0
    2.0117   -0.9457    0.7665 N   0  0  0  0  0
    3.4286   -0.8667   -1.0673 O   0  0  0  0  0
    2.9548   -3.7161    1.2904 O   0  0  0  0  0
    5.6948    0.1610    0.5846 O   0  0  0  0  0
    0.8801    5.2777    0.4552 O   0  0  0  0  0
  1  4  1  0  0  0
  2  9  1  0  0  0
  3  7  1  0  0  0
  5 12  1  0  0  0
  6 10  1  0  0  0
  8 11  1  0  0  0
  8 13  1  0  0  0
 10 23  1  0  0  0
 11 21  1  0  0  0
 12 22  1  0  0  0
 13 19  1  0  0  0
 14 17  1  0  0  0
 15 18  1  0  0  0
 16 18  1  0  0  0
 17  9  1  0  0  0
 17 19  1  0  0  0
 18 23  1  0  0  0
  1  5  2  0  0  0
  2  6  2  0  0  0
  3  9  2  0  0  0
  4 11  2  0  0  0
  7 10  2  0  0  0
  8 12  2  0  0  0
 13 20  2  0  0  0
M  END
> <rmsd>
0.2910631

$$$$
ZINC92117889


 23 24  0  0  0  0  0  0  0  0999 V2000
    1.1842    3.2674   -0.8624 C   0  0  0  0  0
    0.8517    3.9176    0.3260 C   0  0  0  0  0
    6.3409   -2.9345    2.4179 C   0  0  0  0  0
    1.1844    1.8736   -0.9184 C   0  0  0  0  0
    0.5195    3.1740    1.4584 C   0  0  0  0  0
    5.1407   -3.6171    2.2200 C   0  0  0  0  0
    6.5214   -1.6665    1.8652 C   0  0  0  0  0
    4.3016   -1.7638    0.9166 C   0  0  0  0  0
    0.8522    1.1300    0.2139 C   0  0  0  0  0
    0.5196    1.7803    1.4024 C   0  0  0  0  0
    4.1211   -3.0318    1.4694 C   0  0  0  0  0
    5.5018   -1.0813    1.1146 C   0  0  0  0  0
    3.2358   -1.1520    0.1312 C   0  0  0  0  0
   -3.4341   -1.6173    4.5953 C   0  0  0  0  0
    0.8580   -0.3690    0.1298 C   0  0  0  0  0
    0.1611    1.0055    2.6279 C   0  0  0  0  0
   -2.9429   -0.8158    3.4033 C   0  0  0  0  0
   -1.5422   -0.2673    3.6286 C   0  0  0  0  0
    2.0149   -0.9426    0.7789 N   0  0  0  0  0
    3.4239   -0.8597   -1.0609 O   0  0  0  0  0
    2.9560   -3.7163    1.2893 O   0  0  0  0  0
    5.6991    0.1589    0.5844 O   0  0  0  0  0
   -1.1524    0.4809    2.4851 O   0  0  0  0  0
  1  2  1  0  0  0
  3  6  1  0  0  0
  4  9  1  0  0  0
  5 10  1  0  0  0
  7 12  1  0  0  0
  8 11  1  0  0  0
  8 13  1  0  0  0
 11 21  1  0  0  0
 12 22  1  0  0  0
 13 19  1  0  0  0
 14 17  1  0  0  0
 15  9  1  0  0  0
 15 19  1  0  0  0
 16 10  1  0  0  0
 16 23  1  0  0  0
 17 18  1  0  0  0
 18 23  1  0  0  0
  1  4  2  0  0  0
  2  5  2  0  0  0
  3  7  2  0  0  0
  6 11  2  0  0  0
  8 12  2  0  0  0
  9 10  2  0  0  0
 13 20  2  0  0  0
M  END
> <rmsd>
0.284518421

$$$$
ZINC92117889


 23 24  0  0  0  0  0  0  0  0999 V2000
    1.1839    3.2670   -0.8627 C   0  0  0  0  0
    0.8515    3.9174    0.3256 C   0  0  0  0  0
    6.3405   -2.9347    2.4181 C   0  0  0  0  0
    1.1841    1.8733   -0.9186 C   0  0  0  0  0
    0.5192    3.1739    1.4580 C   0  0  0  0  0
    5.1403   -3.6172    2.2203 C   0  0  0  0  0
    6.5210   -1.6668    1.8653 C   0  0  0  0  0
    4.3012   -1.7641    0.9167 C   0  0  0  0  0
    0.8518    1.1298    0.2138 C   0  0  0  0  0
    0.5193    1.7801    1.4022 C   0  0  0  0  0
    4.1206   -3.0320    1.4696 C   0  0  0  0  0
    5.5014   -1.0816    1.1147 C   0  0  0  0  0
    3.2354   -1.1523    0.1312 C   0  0  0  0  0
    3.4105   -0.1495    5.0417 C   0  0  0  0  0
    0.8576   -0.3692    0.1298 C   0  0  0  0  0
    0.1608    1.0055    2.6278 C   0  0  0  0  0
    2.1482    0.4134    5.6696 C   0  0  0  0  0
    0.9568    0.3170    4.7290 C   0  0  0  0  0
    2.0145   -0.9428    0.7790 N   0  0  0  0  0
    3.4235   -0.8601   -1.0608 O   0  0  0  0  0
    2.9555   -3.7165    1.2896 O   0  0  0  0  0
    5.6987    0.1585    0.5844 O   0  0  0  0  0
    1.2487    1.0421    3.5423 O   0  0  0  0  0
  1  2  1  0  0  0
  3  6  1  0  0  0
  4  9  1  0  0  0
  5 10  1  0  0  0
  7 12  1  0  0  0
  8 11  1  0  0  0
  8 13  1  0  0  0
 11 21  1  0  0  0
 12 22  1  0  0  0
 13 19  1  0  0  0
 14 17  1  0  0  0
 15  9  1  0  0  0
 15 19  1  0  0  0
 16 10  1  0  0  0
 16 23  1  0  0  0
 17 18  1  0  0  0
 18 23  1  0  0  0
  1  4  2  0  0  0
  2  5  2  0  0  0
  3  7  2  0  0  0
  6 11  2  0  0  0
  8 12  2  0  0  0
  9 10  2  0  0  0
 13 20  2  0  0  0
M  END
> <rmsd>
0.284515411

$$$$
ZINC92126457


 23 24  0  0  0  0  0  0  0  0999 V2000
    6.2134   -2.8179    2.5565 C   0  0  0  0  0
   -2.6418    0.2688    2.0037 C   0  0  0  0  0
   -1.0629   -1.5193    2.3866 C   0  0  0  0  0
    5.0267   -3.5142    2.3271 C   0  0  0  0  0
    6.4145   -1.5694    1.9679 C   0  0  0  0  0
   -3.6967   -0.6340    2.1371 C   0  0  0  0  0
   -2.1177   -2.4222    2.5200 C   0  0  0  0  0
    4.2422   -1.7133    0.9205 C   0  0  0  0  0
   -1.3250   -0.1737    2.1284 C   0  0  0  0  0
   -3.4347   -1.9795    2.3953 C   0  0  0  0  0
    4.0411   -2.9619    1.5091 C   0  0  0  0  0
    5.4290   -1.0172    1.1499 C   0  0  0  0  0
    3.1928   -1.1253    0.0486 C   0  0  0  0  0
    1.4259    2.0301    0.4872 C   0  0  0  0  0
   -4.1251   -4.2207    2.7901 C   0  0  0  0  0
   -0.1835    0.8031    1.9847 C   0  0  0  0  0
    0.8333   -0.3684   -0.0765 C   0  0  0  0  0
    0.3367    0.9521    0.5383 C   0  0  0  0  0
    1.9599   -0.9102    0.6456 N   0  0  0  0  0
    3.4547   -0.8852   -1.1271 O   0  0  0  0  0
    2.8887   -3.6591    1.2992 O   0  0  0  0  0
    5.6457    0.2045    0.5854 O   0  0  0  0  0
   -4.4642   -2.8601    2.5267 O   0  0  0  0  0
  1  4  1  0  0  0
  2  9  1  0  0  0
  3  7  1  0  0  0
  5 12  1  0  0  0
  6 10  1  0  0  0
  8 11  1  0  0  0
  8 13  1  0  0  0
 10 23  1  0  0  0
 11 21  1  0  0  0
 12 22  1  0  0  0
 13 19  1  0  0  0
 14 18  1  0  0  0
 15 23  1  0  0  0
 16  9  1  0  0  0
 16 18  1  0  0  0
 17 18  1  0  0  0
 17 19  1  0  0  0
  1  5  2  0  0  0
  2  6  2  0  0  0
  3  9  2  0  0  0
  4 11  2  0  0  0
  7 10  2  0  0  0
  8 12  2  0  0  0
 13 20  2  0  0  0
M  END
> <rmsd>
0.490593374

$$$$
ZINC92126457


 23 24  0  0  0  0  0  0  0  0999 V2000
    6.2137   -2.8179    2.5559 C   0  0  0  0  0
   -0.6023    3.0553    3.0243 C   0  0  0  0  0
   -2.4891    1.7824    2.2140 C   0  0  0  0  0
    5.0270   -3.5143    2.3266 C   0  0  0  0  0
    6.4147   -1.5694    1.9673 C   0  0  0  0  0
   -1.4635    4.0766    3.4256 C   0  0  0  0  0
   -3.3504    2.8037    2.6153 C   0  0  0  0  0
    4.2422   -1.7134    0.9201 C   0  0  0  0  0
   -1.1151    1.9083    2.4185 C   0  0  0  0  0
   -2.8376    3.9507    3.2211 C   0  0  0  0  0
    4.0413   -2.9620    1.5087 C   0  0  0  0  0
    5.4290   -1.0172    1.1493 C   0  0  0  0  0
    3.1928   -1.1254    0.0484 C   0  0  0  0  0
    1.4258    2.0299    0.4872 C   0  0  0  0  0
   -5.0710    4.7530    3.3748 C   0  0  0  0  0
   -0.1834    0.8029    1.9848 C   0  0  0  0  0
    0.8332   -0.3685   -0.0766 C   0  0  0  0  0
    0.3366    0.9519    0.5383 C   0  0  0  0  0
    1.9599   -0.9103    0.6455 N   0  0  0  0  0
    3.4545   -0.8852   -1.1274 O   0  0  0  0  0
    2.8888   -3.6592    1.2989 O   0  0  0  0  0
    5.6457    0.2045    0.5849 O   0  0  0  0  0
   -3.6778    4.9468    3.6139 O   0  0  0  0  0
  1  4  1  0  0  0
  2  9  1  0  0  0
  3  7  1  0  0  0
  5 12  1  0  0  0
  6 10  1  0  0  0
  8 11  1  0  0  0
  8 13  1  0  0  0
 10 23  1  0  0  0
 11 21  1  0  0  0
 12 22  1  0  0  0
 13 19  1  0  0  0
 14 18  1  0  0  0
 15 23  1  0  0  0
 16  9  1  0  0  0
 16 18  1  0  0  0
 17 18  1  0  0  0
 17 19  1  0  0  0
  1  5  2  0  0  0
  2  6  2  0  0  0
  3  9  2  0  0  0
  4 11  2  0  0  0
  7 10  2  0  0  0
  8 12  2  0  0  0
 13 20  2  0  0  0
M  END
> <rmsd>
0.490458846

$$$$
ZINC92121585


 22 24  0  0  0  0  0  0  0  0999 V2000
   -3.0291    1.8439    3.9812 C   0  0  0  0  0
   -2.2775    0.6701    4.0353 C   0  0  0  0  0
   -2.4780    3.0003    3.4293 C   0  0  0  0  0
    6.3910   -3.0921    2.1829 C   0  0  0  0  0
    5.1473   -3.7075    2.0417 C   0  0  0  0  0
    6.5929   -1.8049    1.6847 C   0  0  0  0  0
   -0.9746    0.6528    3.5374 C   0  0  0  0  0
   -1.1750    2.9830    2.9315 C   0  0  0  0  0
    4.3072   -1.7487    0.9039 C   0  0  0  0  0
    4.1054   -3.0359    1.4021 C   0  0  0  0  0
    5.5510   -1.1333    1.0451 C   0  0  0  0  0
   -0.4233    1.8092    2.9856 C   0  0  0  0  0
    3.1978   -1.0335    0.2222 C   0  0  0  0  0
    0.1113    2.2222   -0.1910 C   0  0  0  0  0
    1.5947    2.1731   -0.4133 C   0  0  0  0  0
    0.9708    1.3277    0.6753 C   0  0  0  0  0
    0.8880   -0.1581    0.4545 C   0  0  0  0  0
    2.0493   -0.8119    0.9784 N   0  0  0  0  0
    3.3322   -0.6974   -0.9516 O   0  0  0  0  0
    2.8978   -3.6557    1.2760 O   0  0  0  0  0
    5.7697    0.1241    0.5665 O   0  0  0  0  0
    1.2366    1.7871    2.3521 S   0  0  0  0  0
  1  2  1  0  0  0
  3  8  1  0  0  0
  4  5  1  0  0  0
  6 11  1  0  0  0
  7 12  1  0  0  0
  9 10  1  0  0  0
  9 13  1  0  0  0
 10 20  1  0  0  0
 11 21  1  0  0  0
 12 22  1  0  0  0
 13 18  1  0  0  0
 14 15  1  0  0  0
 14 16  1  0  0  0
 15 16  1  0  0  0
 16 17  1  0  0  0
 16 22  1  0  0  0
 17 18  1  0  0  0
  1  3  2  0  0  0
  2  7  2  0  0  0
  4  6  2  0  0  0
  5 10  2  0  0  0
  8 12  2  0  0  0
  9 11  2  0  0  0
 13 19  2  0  0  0
M  END
> <rmsd>
0.31764552

$$$$
ZINC92121613


 23 24  0  0  0  0  0  0  0  0999 V2000
    0.0775    1.0472    6.9913 C   0  0  0  0  0
   -0.0526   -0.0295    6.1142 C   0  0  0  0  0
    0.1271    2.3496    6.4943 C   0  0  0  0  0
    6.3771   -3.1626    2.2024 C   0  0  0  0  0
   -0.1330    0.1961    4.7401 C   0  0  0  0  0
    0.0467    2.5752    5.1201 C   0  0  0  0  0
    5.1142   -3.7376    2.0612 C   0  0  0  0  0
    6.6231   -1.8865    1.6958 C   0  0  0  0  0
    4.3430   -1.7604    0.9067 C   0  0  0  0  0
   -0.0834    1.4985    4.2430 C   0  0  0  0  0
    4.0971   -3.0365    1.4134 C   0  0  0  0  0
    5.6060   -1.1853    1.0479 C   0  0  0  0  0
    3.2601   -1.0137    0.2161 C   0  0  0  0  0
   -0.0924    2.2290    0.0533 C   0  0  0  0  0
    1.9263    3.0257    2.3657 C   0  0  0  0  0
   -0.1696    1.7419    2.7650 C   0  0  0  0  0
    0.9796   -0.0613    0.4341 C   0  0  0  0  0
    1.0814    1.4503    0.6319 C   0  0  0  0  0
    2.1270   -0.7551    0.9714 N   0  0  0  0  0
    1.1766    1.7485    2.0883 N   0  0  0  0  0
    3.4094   -0.6908   -0.9596 O   0  0  0  0  0
    2.8701   -3.6170    1.2874 O   0  0  0  0  0
    5.8678    0.0606    0.5611 O   0  0  0  0  0
  1  2  1  0  0  0
  3  6  1  0  0  0
  4  7  1  0  0  0
  5 10  1  0  0  0
  8 12  1  0  0  0
  9 11  1  0  0  0
  9 13  1  0  0  0
 11 22  1  0  0  0
 12 23  1  0  0  0
 13 19  1  0  0  0
 14 18  1  0  0  0
 15 20  1  0  0  0
 16 10  1  0  0  0
 16 20  1  0  0  0
 17 18  1  0  0  0
 17 19  1  0  0  0
 18 20  1  0  0  0
  1  3  2  0  0  0
  2  5  2  0  0  0
  4  8  2  0  0  0
  6 10  2  0  0  0
  7 11  2  0  0  0
  9 12  2  0  0  0
 13 21  2  0  0  0
M  CHG  1  20   1
M  END
> <rmsd>
0.366167098

$$$$
ZINC92121611


 23 24  0  0  0  0  0  0  0  0999 V2000
   -4.7369    3.7508   -0.7982 C   0  0  0  0  0
   -4.6772    3.1063    0.4374 C   0  0  0  0  0
   -3.7280    3.5482   -1.7399 C   0  0  0  0  0
    6.5479   -3.1706    2.0085 C   0  0  0  0  0
   -3.6086    2.2593    0.7314 C   0  0  0  0  0
   -2.6594    2.7013   -1.4460 C   0  0  0  0  0
    5.3115   -3.8075    1.9025 C   0  0  0  0  0
    6.6979   -1.8591    1.5577 C   0  0  0  0  0
    4.3750   -1.8214    0.8947 C   0  0  0  0  0
   -2.5996    2.0568   -0.2104 C   0  0  0  0  0
    4.2250   -3.1329    1.3456 C   0  0  0  0  0
    5.6114   -1.1845    1.0008 C   0  0  0  0  0
    3.2181   -1.1029    0.3009 C   0  0  0  0  0
   -0.1183    0.6089    2.8485 C   0  0  0  0  0
    0.4848    2.6736   -0.2474 C   0  0  0  0  0
   -1.4498    1.1461    0.1052 C   0  0  0  0  0
    0.9054   -0.2912    0.6860 C   0  0  0  0  0
    0.5784    0.9365    1.5346 C   0  0  0  0  0
    2.1155   -0.9458    1.1263 N   0  0  0  0  0
   -0.2924    1.8598    0.7546 N   0  0  0  0  0
    3.2860   -0.7141   -0.8621 O   0  0  0  0  0
    3.0256   -3.7739    1.2526 O   0  0  0  0  0
    5.7799    0.0968    0.5674 O   0  0  0  0  0
  1  2  1  0  0  0
  3  6  1  0  0  0
  4  7  1  0  0  0
  5 10  1  0  0  0
  8 12  1  0  0  0
  9 11  1  0  0  0
  9 13  1  0  0  0
 11 22  1  0  0  0
 12 23  1  0  0  0
 13 19  1  0  0  0
 14 18  1  0  0  0
 15 20  1  0  0  0
 16 10  1  0  0  0
 16 20  1  0  0  0
 17 18  1  0  0  0
 17 19  1  0  0  0
 18 20  1  0  0  0
  1  3  2  0  0  0
  2  5  2  0  0  0
  4  8  2  0  0  0
  6 10  2  0  0  0
  7 11  2  0  0  0
  9 12  2  0  0  0
 13 21  2  0  0  0
M  CHG  1  20   1
M  END
> <rmsd>
0.360644132

$$$$
ZINC92121611


 23 24  0  0  0  0  0  0  0  0999 V2000
    5.9350    4.4809    3.0346 C   0  0  0  0  0
    5.4240    3.3301    3.6344 C   0  0  0  0  0
    5.1572    5.1977    2.1252 C   0  0  0  0  0
    6.2686   -3.1105    2.3590 C   0  0  0  0  0
    4.1351    2.8958    3.3249 C   0  0  0  0  0
    3.8682    4.7633    1.8156 C   0  0  0  0  0
    5.0013   -3.6665    2.1850 C   0  0  0  0  0
    6.5639   -1.8623    1.8107 C   0  0  0  0  0
    4.3244   -1.7263    0.9142 C   0  0  0  0  0
    3.3572    3.6124    2.4154 C   0  0  0  0  0
    4.0292   -2.9745    1.4626 C   0  0  0  0  0
    5.5917   -1.1702    1.0883 C   0  0  0  0  0
    3.2895   -0.9894    0.1443 C   0  0  0  0  0
   -0.4277    2.1199    0.2800 C   0  0  0  0  0
    2.1210    2.9223   -0.3937 C   0  0  0  0  0
    1.9709    3.1457    2.0817 C   0  0  0  0  0
    1.0220    0.0154    0.2182 C   0  0  0  0  0
    0.7144    1.3391    0.9165 C   0  0  0  0  0
    2.1296   -0.6767    0.8359 N   0  0  0  0  0
    1.9331    2.1957    0.9129 N   0  0  0  0  0
    3.4977   -0.7204   -1.0359 O   0  0  0  0  0
    2.7970   -3.5360    1.3056 O   0  0  0  0  0
    5.9013    0.0484    0.5618 O   0  0  0  0  0
  1  2  1  0  0  0
  3  6  1  0  0  0
  4  7  1  0  0  0
  5 10  1  0  0  0
  8 12  1  0  0  0
  9 11  1  0  0  0
  9 13  1  0  0  0
 11 22  1  0  0  0
 12 23  1  0  0  0
 13 19  1  0  0  0
 14 18  1  0  0  0
 15 20  1  0  0  0
 16 10  1  0  0  0
 16 20  1  0  0  0
 17 18  1  0  0  0
 17 19  1  0  0  0
 18 20  1  0  0  0
  1  3  2  0  0  0
  2  5  2  0  0  0
  4  8  2  0  0  0
  6 10  2  0  0  0
  7 11  2  0  0  0
  9 12  2  0  0  0
 13 21  2  0  0  0
M  CHG  1  20   1
M  END
> <rmsd>
0.50037241

$$$$
ZINC93356298


 21 22  0  0  0  0  0  0  0  0999 V2000
   -2.0191   -0.5480   -0.0228 C   0  0  0  0  0
   -1.2234    0.5963    0.0298 C   0  0  0  0  0
   -0.2831   -1.6989   -1.2471 C   0  0  0  0  0
    3.6347   -2.5086    2.1353 C   0  0  0  0  0
    3.7092   -1.2648    1.5575 C   0  0  0  0  0
   -1.5490   -1.6957   -0.6613 C   0  0  0  0  0
    0.0424    0.5932   -0.5559 C   0  0  0  0  0
    0.5127   -0.5544   -1.1944 C   0  0  0  0  0
    3.2707   -1.4645    0.2347 C   0  0  0  0  0
    4.1471   -0.0704    2.2172 C   0  0  0  0  0
    2.9420   -2.7351   -0.0133 N   0  0  0  0  0
    3.1643   -0.5255   -0.7367 N   0  0  0  0  0
    5.2081    0.5524    1.7099 N   0  0  0  0  0
    3.1743   -3.3452    1.1614 N   0  0  0  0  0
    3.5138    0.4606    3.3596 N   0  0  0  0  0
    2.1309   -1.8098   -2.7206 O   0  0  0  0  0
    2.1130    0.6444   -2.7815 O   0  0  0  0  0
    5.7275   -0.0915    0.5822 O   0  0  0  0  0
   -2.3137   -2.7942   -0.7122 F   0  0  0  0  0
    0.7969    1.6998   -0.5016 F   0  0  0  0  0
    2.0944   -0.5626   -1.9345 S   0  0  0  0  0
  1  2  1  0  0  0
  3  6  1  0  0  0
  4 14  1  0  0  0
  5  9  1  0  0  0
  5 10  1  0  0  0
  6 19  1  0  0  0
  7  8  1  0  0  0
  7 20  1  0  0  0
  9 12  1  0  0  0
 10 15  1  0  0  0
 13 18  1  0  0  0
 14 11  1  0  0  0
 21  8  1  0  0  0
 21 12  1  0  0  0
  1  6  2  0  0  0
  2  7  2  0  0  0
  3  8  2  0  0  0
  4  5  2  0  0  0
  9 11  2  0  0  0
 10 13  2  0  0  0
 21 16  2  0  0  0
 21 17  2  0  0  0
M  CHG  1  12  -1
M  END
> <rmsd>
0.478236467

$$$$
ZINC93356321


 21 22  0  0  0  0  0  0  0  0999 V2000
   -1.5480   -1.6965   -0.6622 C   0  0  0  0  0
   -0.2829   -1.6992   -1.2495 C   0  0  0  0  0
   -1.2216    0.5948    0.0308 C   0  0  0  0  0
    3.6341   -2.5081    2.1356 C   0  0  0  0  0
    3.7087   -1.2645    1.5573 C   0  0  0  0  0
   -2.0175   -0.5494   -0.0221 C   0  0  0  0  0
    0.0437    0.5922   -0.5565 C   0  0  0  0  0
    0.5130   -0.5549   -1.1967 C   0  0  0  0  0
    3.2705   -1.4646    0.2346 C   0  0  0  0  0
    4.1463   -0.0699    2.2167 C   0  0  0  0  0
    2.9420   -2.7353   -0.0131 N   0  0  0  0  0
    3.1642   -0.5260   -0.7371 N   0  0  0  0  0
    5.2075    0.5530    1.7096 N   0  0  0  0  0
    3.1740   -3.3449    1.1618 N   0  0  0  0  0
    3.5126    0.4615    3.3588 N   0  0  0  0  0
    2.1321   -1.8106   -2.7215 O   0  0  0  0  0
    2.1145    0.6436   -2.7830 O   0  0  0  0  0
    5.7271   -0.0912    0.5822 O   0  0  0  0  0
   -3.2322   -0.5464    0.5422 F   0  0  0  0  0
    0.7989    1.6981   -0.4996 F   0  0  0  0  0
    2.0948   -0.5633   -1.9355 S   0  0  0  0  0
  1  2  1  0  0  0
  3  6  1  0  0  0
  4 14  1  0  0  0
  5  9  1  0  0  0
  5 10  1  0  0  0
  6 19  1  0  0  0
  7  8  1  0  0  0
  7 20  1  0  0  0
  9 12  1  0  0  0
 10 15  1  0  0  0
 13 18  1  0  0  0
 14 11  1  0  0  0
 21  8  1  0  0  0
 21 12  1  0  0  0
  1  6  2  0  0  0
  2  8  2  0  0  0
  3  7  2  0  0  0
  4  5  2  0  0  0
  9 11  2  0  0  0
 10 13  2  0  0  0
 21 16  2  0  0  0
 21 17  2  0  0  0
M  CHG  1  12  -1
M  END
> <rmsd>
0.477749795

$$$$
ZINC92124061


 23 24  0  0  0  0  0  0  0  0999 V2000
    6.3335   -2.9250    2.4308 C   0  0  0  0  0
    0.3542    1.8997   -0.8480 C   0  0  0  0  0
    0.3586    3.2920   -0.7630 C   0  0  0  0  0
    5.1353   -3.6101    2.2299 C   0  0  0  0  0
    6.5146   -1.6586    1.8748 C   0  0  0  0  0
    1.3752    1.7629    1.3372 C   0  0  0  0  0
    4.2991   -1.7625    0.9167 C   0  0  0  0  0
    0.8624    1.1352    0.2021 C   0  0  0  0  0
    0.8714    3.9196    0.3721 C   0  0  0  0  0
    1.3798    3.1551    1.4223 C   0  0  0  0  0
    4.1180   -3.0289    1.4729 C   0  0  0  0  0
    5.4974   -1.0774    1.1177 C   0  0  0  0  0
    3.2358   -1.1549    0.1246 C   0  0  0  0  0
    0.8624    5.4133    0.4307 C   0  0  0  0  0
   -0.4299   -0.9896    0.6580 C   0  0  0  0  0
    0.8568   -0.3756    0.1101 C   0  0  0  0  0
    2.0118   -0.9452    0.7662 N   0  0  0  0  0
    1.9079    3.7741    2.5888 N   0  0  0  0  0
    3.1275    4.0626    2.6220 O   0  0  0  0  0
    3.4288   -0.8663   -1.0677 O   0  0  0  0  0
    1.1382    4.0131    3.5491 O   0  0  0  0  0
    2.9548   -3.7157    1.2900 O   0  0  0  0  0
    5.6950    0.1612    0.5842 O   0  0  0  0  0
  1  4  1  0  0  0
  2  8  1  0  0  0
  3  9  1  0  0  0
  5 12  1  0  0  0
  6 10  1  0  0  0
  7 11  1  0  0  0
  7 13  1  0  0  0
 10 18  1  0  0  0
 11 22  1  0  0  0
 12 23  1  0  0  0
 13 17  1  0  0  0
 14  9  1  0  0  0
 15 16  1  0  0  0
 16  8  1  0  0  0
 16 17  1  0  0  0
 18 19  1  0  0  0
  1  5  2  0  0  0
  2  3  2  0  0  0
  4 11  2  0  0  0
  6  8  2  0  0  0
  7 12  2  0  0  0
  9 10  2  0  0  0
 13 20  2  0  0  0
 18 21  2  0  0  0
M  CHG  2  18   1  19  -1
M  END
> <rmsd>
0.29077968

$$$$
ZINC92124061


 23 24  0  0  0  0  0  0  0  0999 V2000
    6.3336   -2.9252    2.4309 C   0  0  0  0  0
    0.1722    1.7732    1.2326 C   0  0  0  0  0
    0.1778    3.1654    1.3178 C   0  0  0  0  0
    5.1354   -3.6104    2.2300 C   0  0  0  0  0
    6.5146   -1.6587    1.8750 C   0  0  0  0  0
    1.5579    1.8885   -0.7431 C   0  0  0  0  0
    4.2992   -1.7628    0.9168 C   0  0  0  0  0
    0.8623    1.1347    0.2022 C   0  0  0  0  0
    0.8734    3.9192    0.3725 C   0  0  0  0  0
    1.5635    3.2807   -0.6579 C   0  0  0  0  0
    4.1182   -3.0292    1.4730 C   0  0  0  0  0
    5.4974   -1.0776    1.1179 C   0  0  0  0  0
    3.2359   -1.1552    0.1247 C   0  0  0  0  0
    0.8582    5.4091    0.4921 C   0  0  0  0  0
   -0.4299   -0.9901    0.6580 C   0  0  0  0  0
    0.8568   -0.3760    0.1102 C   0  0  0  0  0
    2.0118   -0.9456    0.7662 N   0  0  0  0  0
    2.2789    4.0294   -1.6327 N   0  0  0  0  0
    1.6844    4.3901   -2.6759 O   0  0  0  0  0
    3.4288   -0.8666   -1.0676 O   0  0  0  0  0
    3.4830    4.3067   -1.4200 O   0  0  0  0  0
    2.9550   -3.7161    1.2900 O   0  0  0  0  0
    5.6950    0.1610    0.5844 O   0  0  0  0  0
  1  4  1  0  0  0
  2  8  1  0  0  0
  3  9  1  0  0  0
  5 12  1  0  0  0
  6 10  1  0  0  0
  7 11  1  0  0  0
  7 13  1  0  0  0
 10 18  1  0  0  0
 11 22  1  0  0  0
 12 23  1  0  0  0
 13 17  1  0  0  0
 14  9  1  0  0  0
 15 16  1  0  0  0
 16  8  1  0  0  0
 16 17  1  0  0  0
 18 19  1  0  0  0
  1  5  2  0  0  0
  2  3  2  0  0  0
  4 11  2  0  0  0
  6  8  2  0  0  0
  7 12  2  0  0  0
  9 10  2  0  0  0
 13 20  2  0  0  0
 18 21  2  0  0  0
M  CHG  2  18   1  19  -1
M  END
> <rmsd>
0.291135371

$$$$
ZINC92124428


 23 24  0  0  0  0  0  0  0  0999 V2000
    1.1861    3.2635   -0.8659 C   0  0  0  0  0
    0.8561    3.9177    0.3209 C   0  0  0  0  0
    6.3418   -2.9351    2.4164 C   0  0  0  0  0
    1.1839    1.8696   -0.9180 C   0  0  0  0  0
    0.5239    3.1780    1.4559 C   0  0  0  0  0
    5.1415   -3.6177    2.2190 C   0  0  0  0  0
    6.5221   -1.6670    1.8641 C   0  0  0  0  0
    4.3017   -1.7641    0.9168 C   0  0  0  0  0
    0.8517    1.1299    0.2170 C   0  0  0  0  0
    0.5216    1.7841    1.4040 C   0  0  0  0  0
    4.1214   -3.0323    1.4691 C   0  0  0  0  0
    5.5020   -1.0815    1.1142 C   0  0  0  0  0
    3.2353   -1.1520    0.1321 C   0  0  0  0  0
   -1.8321   -1.1978    5.3893 C   0  0  0  0  0
    0.8575   -0.3691    0.1324 C   0  0  0  0  0
   -0.1624    1.6762    3.8011 C   0  0  0  0  0
   -0.4346    0.6128    4.8492 C   0  0  0  0  0
    0.1827    1.0516    2.5627 N   0  0  0  0  0
    2.0148   -0.9429    0.7806 N   0  0  0  0  0
    3.4228   -0.8594   -1.0599 O   0  0  0  0  0
    2.9563   -3.7166    1.2896 O   0  0  0  0  0
    5.6988    0.1588    0.5842 O   0  0  0  0  0
   -1.5338   -0.1884    4.4347 O   0  0  0  0  0
  1  2  1  0  0  0
  3  6  1  0  0  0
  4  9  1  0  0  0
  5 10  1  0  0  0
  7 12  1  0  0  0
  8 11  1  0  0  0
  8 13  1  0  0  0
 10 18  1  0  0  0
 11 21  1  0  0  0
 12 22  1  0  0  0
 13 19  1  0  0  0
 14 23  1  0  0  0
 15  9  1  0  0  0
 15 19  1  0  0  0
 16 17  1  0  0  0
 16 18  1  0  0  0
 17 23  1  0  0  0
  1  4  2  0  0  0
  2  5  2  0  0  0
  3  7  2  0  0  0
  6 11  2  0  0  0
  8 12  2  0  0  0
  9 10  2  0  0  0
 13 20  2  0  0  0
M  END
> <rmsd>
0.284898728

$$$$
ZINC92120054


 23 24  0  0  0  0  0  0  0  0999 V2000
    6.3414   -2.9385    2.4140 C   0  0  0  0  0
    1.1636    3.2629   -0.8556 C   0  0  0  0  0
    1.1735    1.8744   -0.9266 C   0  0  0  0  0
    5.1400   -3.6192    2.2171 C   0  0  0  0  0
    6.5232   -1.6704    1.8620 C   0  0  0  0  0
    0.8287    3.8480    0.3549 C   0  0  0  0  0
    4.3021   -1.7637    0.9161 C   0  0  0  0  0
    0.8527    1.1239    0.1991 C   0  0  0  0  0
    4.1203   -3.0318    1.4682 C   0  0  0  0  0
    5.5035   -1.0830    1.1131 C   0  0  0  0  0
    0.5319    1.8047    1.3624 C   0  0  0  0  0
    3.2164   -1.1383    0.1179 C   0  0  0  0  0
   -1.1351    0.6952    7.2004 C   0  0  0  0  0
    0.8592   -0.3639    0.1344 C   0  0  0  0  0
   -0.7863    1.6531    6.0728 C   0  0  0  0  0
   -0.4185    0.9033    4.7955 C   0  0  0  0  0
   -0.1104    1.8589    3.6516 C   0  0  0  0  0
    0.5114    3.1522    1.4697 N   0  0  0  0  0
    2.0136   -0.9375    0.7803 N   0  0  0  0  0
    3.4232   -0.8569   -1.0596 O   0  0  0  0  0
    2.9539   -3.7143    1.2891 O   0  0  0  0  0
    5.7020    0.1571    0.5834 O   0  0  0  0  0
    0.2083    1.1005    2.4931 O   0  0  0  0  0
  1  4  1  0  0  0
  2  3  1  0  0  0
  5 10  1  0  0  0
  6 18  1  0  0  0
  7  9  1  0  0  0
  7 12  1  0  0  0
  8 11  1  0  0  0
  9 21  1  0  0  0
 10 22  1  0  0  0
 11 23  1  0  0  0
 12 19  1  0  0  0
 13 15  1  0  0  0
 14  8  1  0  0  0
 14 19  1  0  0  0
 15 16  1  0  0  0
 16 17  1  0  0  0
 17 23  1  0  0  0
  1  5  2  0  0  0
  2  6  2  0  0  0
  3  8  2  0  0  0
  4  9  2  0  0  0
  7 10  2  0  0  0
 11 18  2  0  0  0
 12 20  2  0  0  0
M  END
> <rmsd>
0.279643774

$$$$
ZINC92122789


 21 22  0  0  0  0  0  0  0  0999 V2000
    6.3361   -2.9505    2.3972 C   0  0  0  0  0
    5.1286   -3.6217    2.2048 C   0  0  0  0  0
    6.5240   -1.6817    1.8489 C   0  0  0  0  0
    1.0529    3.5253   -0.2298 C   0  0  0  0  0
    4.2967   -1.7553    0.9155 C   0  0  0  0  0
    4.1089   -3.0241    1.4639 C   0  0  0  0  0
    5.5043   -1.0842    1.1080 C   0  0  0  0  0
    0.6880    3.2018    1.0603 C   0  0  0  0  0
    0.8682    1.1719    0.2497 C   0  0  0  0  0
    3.2309   -1.1306    0.1402 C   0  0  0  0  0
    0.8601   -0.3267    0.1590 C   0  0  0  0  0
    0.4084    4.1642    2.1443 C   0  0  0  0  0
    0.5812    1.8528    1.3369 N   0  0  0  0  0
    2.0165   -0.9134    0.7974 N   0  0  0  0  0
    3.4133   -0.8347   -1.0518 O   0  0  0  0  0
    2.9366   -3.6975    1.2890 O   0  0  0  0  0
    5.7087    0.1565    0.5819 O   0  0  0  0  0
    0.5392    5.4796    1.7763 F   0  0  0  0  0
   -0.8603    4.0776    2.6592 F   0  0  0  0  0
    1.2383    4.0166    3.2252 F   0  0  0  0  0
    1.2757    2.0900   -1.1417 S   0  0  0  0  0
  1  2  1  0  0  0
  3  7  1  0  0  0
  4 21  1  0  0  0
  5  6  1  0  0  0
  5 10  1  0  0  0
  6 16  1  0  0  0
  7 17  1  0  0  0
  8 13  1  0  0  0
  9 21  1  0  0  0
 10 14  1  0  0  0
 11  9  1  0  0  0
 11 14  1  0  0  0
 12  8  1  0  0  0
 12 18  1  0  0  0
 12 19  1  0  0  0
 12 20  1  0  0  0
  1  3  2  0  0  0
  2  6  2  0  0  0
  4  8  2  0  0  0
  5  7  2  0  0  0
  9 13  2  0  0  0
 10 15  2  0  0  0
M  END
> <rmsd>
0.269790709

$$$$
ZINC14760999


 23 24  0  0  0  0  0  0  0  0999 V2000
   -0.4232   -2.4156   -0.4651 C   0  0  0  0  0
    3.2811   -0.0206    3.9289 C   0  0  0  0  0
    5.4160    0.3127    2.8483 C   0  0  0  0  0
    0.9581   -4.0610    0.6402 C   0  0  0  0  0
    0.6208   -1.4932   -0.3969 C   0  0  0  0  0
    1.8336   -1.8546    0.1900 C   0  0  0  0  0
    3.5212   -0.4635    1.5661 C   0  0  0  0  0
    4.6244    0.3492    3.9961 C   0  0  0  0  0
   -0.2546   -3.6995    0.0534 C   0  0  0  0  0
    2.7295   -0.4270    2.7139 C   0  0  0  0  0
    4.8644   -0.0936    1.6332 C   0  0  0  0  0
    2.0022   -3.1385    0.7085 C   0  0  0  0  0
    2.9320   -0.8967    0.2663 C   0  0  0  0  0
    0.4110   -0.1600   -0.9474 C   0  0  0  0  0
    5.2138    0.7842    5.2951 C   0  0  0  0  0
    0.3768    2.1616   -0.4101 C   0  0  0  0  0
    3.4071   -0.4146   -0.7696 O   0  0  0  0  0
    0.1321    0.0699   -2.1297 O   0  0  0  0  0
   -1.2732   -4.5998   -0.0134 O   0  0  0  0  0
    1.4148   -0.7840    2.6700 O   0  0  0  0  0
    5.6559   -0.1209    0.5238 O   0  0  0  0  0
    3.1784   -3.5132    1.2866 O   0  0  0  0  0
    0.5604    0.8051    0.0092 O   0  0  0  0  0
  1  9  1  0  0  0
  2  8  1  0  0  0
  3 11  1  0  0  0
  4 12  1  0  0  0
  5  6  1  0  0  0
  5 14  1  0  0  0
  6 13  1  0  0  0
  7 10  1  0  0  0
  7 13  1  0  0  0
  9 19  1  0  0  0
 10 20  1  0  0  0
 11 21  1  0  0  0
 12 22  1  0  0  0
 14 23  1  0  0  0
 15  8  1  0  0  0
 16 23  1  0  0  0
  1  5  2  0  0  0
  2 10  2  0  0  0
  3  8  2  0  0  0
  4  9  2  0  0  0
  6 12  2  0  0  0
  7 11  2  0  0  0
 13 17  2  0  0  0
 14 18  2  0  0  0
M  END
> <rmsd>
0.344440281

$$$$
ZINC92126706


 23 25  0  0  0  0  0  0  0  0999 V2000
    6.3955   -3.0916    2.1745 C   0  0  0  0  0
   -0.1234    1.9115    2.8932 C   0  0  0  0  0
    5.1527   -3.7090    2.0350 C   0  0  0  0  0
    6.5938   -1.8030    1.6786 C   0  0  0  0  0
   -0.0448    2.3018    4.2301 C   0  0  0  0  0
    2.3645    2.3758    4.0668 C   0  0  0  0  0
    4.3063   -1.7495    0.9033 C   0  0  0  0  0
    1.0420    1.7533    2.1431 C   0  0  0  0  0
    4.1080   -3.0380    1.3993 C   0  0  0  0  0
    5.5492   -1.1320    1.0428 C   0  0  0  0  0
    1.1991    2.5339    4.8168 C   0  0  0  0  0
    2.2859    1.9854    2.7300 C   0  0  0  0  0
    3.2142   -1.0480    0.2379 C   0  0  0  0  0
    0.1898    2.2120   -0.2851 C   0  0  0  0  0
    1.6836    2.1532   -0.3591 C   0  0  0  0  0
    0.9528    1.3271    0.6844 C   0  0  0  0  0
    0.8832   -0.1638    0.4654 C   0  0  0  0  0
    2.0574   -0.8234    0.9898 N   0  0  0  0  0
    3.3250   -0.6962   -0.9478 O   0  0  0  0  0
    2.9014   -3.6598    1.2747 O   0  0  0  0  0
    5.7644    0.1268    0.5664 O   0  0  0  0  0
    1.2749    2.9093    6.1004 F   0  0  0  0  0
    3.4122    1.8356    2.0184 F   0  0  0  0  0
  1  3  1  0  0  0
  2  8  1  0  0  0
  4 10  1  0  0  0
  5 11  1  0  0  0
  6 12  1  0  0  0
  7  9  1  0  0  0
  7 13  1  0  0  0
  9 20  1  0  0  0
 10 21  1  0  0  0
 11 22  1  0  0  0
 12 23  1  0  0  0
 13 18  1  0  0  0
 14 15  1  0  0  0
 14 16  1  0  0  0
 15 16  1  0  0  0
 16  8  1  0  0  0
 16 17  1  0  0  0
 17 18  1  0  0  0
  1  4  2  0  0  0
  2  5  2  0  0  0
  3  9  2  0  0  0
  6 11  2  0  0  0
  7 10  2  0  0  0
  8 12  2  0  0  0
 13 19  2  0  0  0
M  END
> <rmsd>
0.333438843

$$$$
ZINC92126706


 23 25  0  0  0  0  0  0  0  0999 V2000
    6.3954   -3.0917    2.1748 C   0  0  0  0  0
    2.2885    1.9840    2.7250 C   0  0  0  0  0
    5.1525   -3.7091    2.0352 C   0  0  0  0  0
    6.5937   -1.8030    1.6789 C   0  0  0  0  0
    2.3732    2.3746    4.0613 C   0  0  0  0  0
   -0.0356    2.3035    4.2347 C   0  0  0  0  0
    4.3062   -1.7495    0.9035 C   0  0  0  0  0
    1.0418    1.7532    2.1434 C   0  0  0  0  0
    4.1079   -3.0381    1.3995 C   0  0  0  0  0
    5.5491   -1.1320    1.0431 C   0  0  0  0  0
    1.2111    2.5344    4.8161 C   0  0  0  0  0
   -0.1202    1.9130    2.8983 C   0  0  0  0  0
    3.2141   -1.0480    0.2381 C   0  0  0  0  0
    0.1897    2.2120   -0.2849 C   0  0  0  0  0
    1.6835    2.1532   -0.3588 C   0  0  0  0  0
    0.9527    1.3271    0.6846 C   0  0  0  0  0
    0.8831   -0.1638    0.4655 C   0  0  0  0  0
    2.0573   -0.8234    0.9899 N   0  0  0  0  0
    3.3249   -0.6961   -0.9475 O   0  0  0  0  0
    2.9012   -3.6599    1.2748 O   0  0  0  0  0
    5.7643    0.1268    0.5667 O   0  0  0  0  0
    1.2921    2.9089    6.0996 F   0  0  0  0  0
   -1.3235    1.6945    2.3490 F   0  0  0  0  0
  1  3  1  0  0  0
  2  8  1  0  0  0
  4 10  1  0  0  0
  5 11  1  0  0  0
  6 12  1  0  0  0
  7  9  1  0  0  0
  7 13  1  0  0  0
  9 20  1  0  0  0
 10 21  1  0  0  0
 11 22  1  0  0  0
 12 23  1  0  0  0
 13 18  1  0  0  0
 14 15  1  0  0  0
 14 16  1  0  0  0
 15 16  1  0  0  0
 16  8  1  0  0  0
 16 17  1  0  0  0
 17 18  1  0  0  0
  1  4  2  0  0  0
  2  5  2  0  0  0
  3  9  2  0  0  0
  6 11  2  0  0  0
  7 10  2  0  0  0
  8 12  2  0  0  0
 13 19  2  0  0  0
M  END
> <rmsd>
0.33337158

$$$$
ZINC92126706


 23 25  0  0  0  0  0  0  0  0999 V2000
    6.5854   -3.1376    2.0316 C   0  0  0  0  0
    2.6646    1.8314    2.4069 C   0  0  0  0  0
    5.3661   -3.8051    1.9174 C   0  0  0  0  0
    6.7065   -1.8239    1.5786 C   0  0  0  0  0
    3.6349    2.8335    2.4139 C   0  0  0  0  0
    2.4776    3.9665    0.6210 C   0  0  0  0  0
    4.3888   -1.8452    0.8971 C   0  0  0  0  0
    1.6008    1.8968    1.5070 C   0  0  0  0  0
    4.2677   -3.1590    1.3502 C   0  0  0  0  0
    5.6082   -1.1778    1.0114 C   0  0  0  0  0
    3.5414    3.9010    1.5210 C   0  0  0  0  0
    1.5074    2.9644    0.6141 C   0  0  0  0  0
    3.2406   -1.1697    0.3033 C   0  0  0  0  0
   -0.2586    0.5609    2.7681 C   0  0  0  0  0
   -0.9180    1.2031    1.5879 C   0  0  0  0  0
    0.5436    0.8014    1.5018 C   0  0  0  0  0
    0.8845   -0.4009    0.6570 C   0  0  0  0  0
    2.1071   -1.0257    1.1085 N   0  0  0  0  0
    3.2869   -0.7695   -0.8712 O   0  0  0  0  0
    3.0853   -3.8298    1.2493 O   0  0  0  0  0
    5.7484    0.1063    0.5760 O   0  0  0  0  0
    4.4726    4.8637    1.5278 F   0  0  0  0  0
    0.4897    3.0365   -0.2555 F   0  0  0  0  0
  1  3  1  0  0  0
  2  8  1  0  0  0
  4 10  1  0  0  0
  5 11  1  0  0  0
  6 12  1  0  0  0
  7  9  1  0  0  0
  7 13  1  0  0  0
  9 20  1  0  0  0
 10 21  1  0  0  0
 11 22  1  0  0  0
 12 23  1  0  0  0
 13 18  1  0  0  0
 14 15  1  0  0  0
 14 16  1  0  0  0
 15 16  1  0  0  0
 16  8  1  0  0  0
 16 17  1  0  0  0
 17 18  1  0  0  0
  1  4  2  0  0  0
  2  5  2  0  0  0
  3  9  2  0  0  0
  6 11  2  0  0  0
  7 10  2  0  0  0
  8 12  2  0  0  0
 13 19  2  0  0  0
M  END
> <rmsd>
0.471191376

$$$$
ZINC92127129


 23 25  0  0  0  0  0  0  0  0999 V2000
    6.3953   -3.0912    2.1754 C   0  0  0  0  0
    1.2047    2.5344    4.8168 C   0  0  0  0  0
    5.1524   -3.7087    2.0358 C   0  0  0  0  0
    6.5936   -1.8027    1.6794 C   0  0  0  0  0
   -0.0406    2.3030    4.2326 C   0  0  0  0  0
    2.3684    2.3755    4.0644 C   0  0  0  0  0
    4.3060   -1.7493    0.9038 C   0  0  0  0  0
    1.0416    1.7535    2.1435 C   0  0  0  0  0
    4.1078   -3.0378    1.3999 C   0  0  0  0  0
    5.5489   -1.1317    1.0435 C   0  0  0  0  0
   -0.1222    1.9125    2.8960 C   0  0  0  0  0
    2.2869    1.9850    2.7278 C   0  0  0  0  0
    3.2140   -1.0477    0.2385 C   0  0  0  0  0
    0.1895    2.2121   -0.2848 C   0  0  0  0  0
    1.6833    2.1533   -0.3587 C   0  0  0  0  0
    0.9526    1.3272    0.6847 C   0  0  0  0  0
    0.8829   -0.1636    0.4657 C   0  0  0  0  0
    2.0572   -0.8231    0.9902 N   0  0  0  0  0
    3.3248   -0.6960   -0.9472 O   0  0  0  0  0
    2.9011   -3.6596    1.2753 O   0  0  0  0  0
    5.7642    0.1270    0.5670 O   0  0  0  0  0
   -1.3239    1.6925    2.3443 F   0  0  0  0  0
    3.4114    1.8352    2.0136 F   0  0  0  0  0
  1  3  1  0  0  0
  2  5  1  0  0  0
  4 10  1  0  0  0
  6 12  1  0  0  0
  7  9  1  0  0  0
  7 13  1  0  0  0
  8 11  1  0  0  0
  9 20  1  0  0  0
 10 21  1  0  0  0
 11 22  1  0  0  0
 12 23  1  0  0  0
 13 18  1  0  0  0
 14 15  1  0  0  0
 14 16  1  0  0  0
 15 16  1  0  0  0
 16  8  1  0  0  0
 16 17  1  0  0  0
 17 18  1  0  0  0
  1  4  2  0  0  0
  2  6  2  0  0  0
  3  9  2  0  0  0
  5 11  2  0  0  0
  7 10  2  0  0  0
  8 12  2  0  0  0
 13 19  2  0  0  0
M  END
> <rmsd>
0.333187997

$$$$
ZINC92127129


 23 25  0  0  0  0  0  0  0  0999 V2000
    6.5850   -3.1382    2.0310 C   0  0  0  0  0
    3.5398    3.9041    1.5154 C   0  0  0  0  0
    5.3653   -3.8053    1.9169 C   0  0  0  0  0
    6.7064   -1.8246    1.5779 C   0  0  0  0  0
    3.6357    2.8379    2.4095 C   0  0  0  0  0
    2.4749    3.9672    0.6167 C   0  0  0  0  0
    4.3886   -1.8453    0.8964 C   0  0  0  0  0
    1.6017    1.8976    1.5060 C   0  0  0  0  0
    4.2671   -3.1590    1.3497 C   0  0  0  0  0
    5.6082   -1.1781    1.0106 C   0  0  0  0  0
    2.6666    1.8347    2.4049 C   0  0  0  0  0
    1.5059    2.9640    0.6120 C   0  0  0  0  0
    3.2405   -1.1695    0.3026 C   0  0  0  0  0
   -0.2581    0.5623    2.7675 C   0  0  0  0  0
   -0.9174    1.2047    1.5872 C   0  0  0  0  0
    0.5441    0.8025    1.5010 C   0  0  0  0  0
    0.8847   -0.4000    0.6564 C   0  0  0  0  0
    2.1072   -1.0250    1.1079 N   0  0  0  0  0
    3.2869   -0.7694   -0.8719 O   0  0  0  0  0
    3.0845   -3.8294    1.2489 O   0  0  0  0  0
    5.7487    0.1059    0.5751 O   0  0  0  0  0
    2.7681    0.8142    3.2683 F   0  0  0  0  0
    0.4866    3.0341   -0.2558 F   0  0  0  0  0
  1  3  1  0  0  0
  2  5  1  0  0  0
  4 10  1  0  0  0
  6 12  1  0  0  0
  7  9  1  0  0  0
  7 13  1  0  0  0
  8 11  1  0  0  0
  9 20  1  0  0  0
 10 21  1  0  0  0
 11 22  1  0  0  0
 12 23  1  0  0  0
 13 18  1  0  0  0
 14 15  1  0  0  0
 14 16  1  0  0  0
 15 16  1  0  0  0
 16  8  1  0  0  0
 16 17  1  0  0  0
 17 18  1  0  0  0
  1  4  2  0  0  0
  2  6  2  0  0  0
  3  9  2  0  0  0
  5 11  2  0  0  0
  7 10  2  0  0  0
  8 12  2  0  0  0
 13 19  2  0  0  0
M  END
> <rmsd>
0.470477223

$$$$
ZINC92123992


 23 24  0  0  0  0  0  0  0  0999 V2000
    4.1647    4.1092    2.5202 C   0  0  0  0  0
    5.0706    3.4250    3.3305 C   0  0  0  0  0
    6.4552   -3.2727    2.0016 C   0  0  0  0  0
    2.9406    3.5249    2.1945 C   0  0  0  0  0
    5.1778   -3.8247    1.9066 C   0  0  0  0  0
    6.6907   -1.9764    1.5435 C   0  0  0  0  0
    4.7526    2.1562    3.8151 C   0  0  0  0  0
    4.3712   -1.7843    0.8952 C   0  0  0  0  0
    4.1358   -3.0805    1.3534 C   0  0  0  0  0
    5.6487   -1.2323    0.9902 C   0  0  0  0  0
    2.6227    2.2562    2.6792 C   0  0  0  0  0
    3.5286    1.5719    3.4894 C   0  0  0  0  0
    3.2616   -0.9917    0.3053 C   0  0  0  0  0
   -0.3557    2.1728   -0.9348 C   0  0  0  0  0
   -0.0672    2.2903    0.5567 C   0  0  0  0  0
    1.0119   -0.0234    0.7010 C   0  0  0  0  0
    1.1627    1.4753    0.9719 C   0  0  0  0  0
    2.1780   -0.7567    1.1368 N   0  0  0  0  0
    3.3480   -0.6136   -0.8601 O   0  0  0  0  0
    2.8951   -3.6393    1.2712 O   0  0  0  0  0
    5.9007    0.0327    0.5495 O   0  0  0  0  0
    1.4218    1.6837    2.3589 O   0  0  0  0  0
    3.2290    0.3525    3.9581 F   0  0  0  0  0
  1  2  1  0  0  0
  3  5  1  0  0  0
  4 11  1  0  0  0
  6 10  1  0  0  0
  7 12  1  0  0  0
  8  9  1  0  0  0
  8 13  1  0  0  0
  9 20  1  0  0  0
 10 21  1  0  0  0
 11 22  1  0  0  0
 12 23  1  0  0  0
 13 18  1  0  0  0
 14 15  1  0  0  0
 15 17  1  0  0  0
 16 17  1  0  0  0
 16 18  1  0  0  0
 17 22  1  0  0  0
  1  4  2  0  0  0
  2  7  2  0  0  0
  3  6  2  0  0  0
  5  9  2  0  0  0
  8 10  2  0  0  0
 11 12  2  0  0  0
 13 19  2  0  0  0
M  END
> <rmsd>
0.453208178

$$$$
ZINC92104974


 22 24  0  0  0  0  0  0  0  0999 V2000
    2.0598    3.2221    0.7173 C   0  0  0  0  0
    6.5151   -3.0599    2.0962 C   0  0  0  0  0
    1.8110    1.8843    1.0233 C   0  0  0  0  0
    5.3030   -3.7380    1.9668 C   0  0  0  0  0
    6.6360   -1.7519    1.6270 C   0  0  0  0  0
    1.5562    3.7661   -0.4558 C   0  0  0  0  0
    4.3329   -1.8000    0.8990 C   0  0  0  0  0
    1.0660    1.0554    0.1579 C   0  0  0  0  0
    4.2119   -3.1081    1.3682 C   0  0  0  0  0
    5.5450   -1.1220    1.0283 C   0  0  0  0  0
    0.7928    2.9756   -1.3126 C   0  0  0  0  0
    0.5281    1.6276   -1.0107 C   0  0  0  0  0
    3.1711   -1.1292    0.2608 C   0  0  0  0  0
    0.2717   -1.2948   -0.5379 C   0  0  0  0  0
   -0.9593   -0.7041   -1.1972 C   0  0  0  0  0
    0.8233   -0.3864    0.5668 C   0  0  0  0  0
    2.0465   -0.9970    1.0543 N   0  0  0  0  0
    3.2595   -0.7576   -0.9065 O   0  0  0  0  0
    3.0366   -3.7889    1.2530 O   0  0  0  0  0
    5.6848    0.1568    0.5776 O   0  0  0  0  0
    0.3154    3.5328   -2.4366 F   0  0  0  0  0
   -0.4987    0.7450   -2.1812 S   0  0  0  0  0
  1  3  1  0  0  0
  2  4  1  0  0  0
  5 10  1  0  0  0
  6 11  1  0  0  0
  7  9  1  0  0  0
  7 13  1  0  0  0
  8 12  1  0  0  0
  9 19  1  0  0  0
 10 20  1  0  0  0
 11 21  1  0  0  0
 12 22  1  0  0  0
 13 17  1  0  0  0
 14 15  1  0  0  0
 14 16  1  0  0  0
 15 22  1  0  0  0
 16  8  1  0  0  0
 16 17  1  0  0  0
  1  6  2  0  0  0
  2  5  2  0  0  0
  3  8  2  0  0  0
  4  9  2  0  0  0
  7 10  2  0  0  0
 11 12  2  0  0  0
 13 18  2  0  0  0
M  END
> <rmsd>
0.450530618

$$$$
ZINC92124788


 22 24  0  0  0  0  0  0  0  0999 V2000
    6.2384   -2.8588    2.4995 C   0  0  0  0  0
    5.0422   -3.5441    2.2870 C   0  0  0  0  0
    6.4374   -1.6064    1.9183 C   0  0  0  0  0
   -0.0685    0.7616    4.9535 C   0  0  0  0  0
   -0.4356    0.2333    6.1716 C   0  0  0  0  0
    0.5742   -1.4574    4.6979 C   0  0  0  0  0
    4.2441   -1.7247    0.9122 C   0  0  0  0  0
    0.5164   -0.2176    4.0998 C   0  0  0  0  0
    4.0451   -2.9771    1.4934 C   0  0  0  0  0
    5.4404   -1.0393    1.1247 C   0  0  0  0  0
    3.1945   -1.1276    0.0759 C   0  0  0  0  0
    1.5693   -1.1928    2.0401 C   0  0  0  0  0
    0.8640   -0.3243   -0.1365 C   0  0  0  0  0
    1.0156    0.0723    2.7012 C   0  0  0  0  0
    0.2740    0.9043    0.5609 C   0  0  0  0  0
    1.1757    2.1333    0.4619 C   0  0  0  0  0
    1.9504   -0.8886    0.6581 N   0  0  0  0  0
    3.5026   -0.8677   -1.0860 O   0  0  0  0  0
   -0.0660    0.6094    1.9234 O   0  0  0  0  0
    2.8835   -3.6637    1.2998 O   0  0  0  0  0
    5.6555    0.1857    0.5672 O   0  0  0  0  0
   -0.0752   -1.4371    6.2822 S   0  0  0  0  0
  1  2  1  0  0  0
  3 10  1  0  0  0
  4  8  1  0  0  0
  5 22  1  0  0  0
  6 22  1  0  0  0
  7  9  1  0  0  0
  7 11  1  0  0  0
  9 20  1  0  0  0
 10 21  1  0  0  0
 11 17  1  0  0  0
 12 14  1  0  0  0
 12 17  1  0  0  0
 13 15  1  0  0  0
 13 17  1  0  0  0
 14  8  1  0  0  0
 14 19  1  0  0  0
 15 16  1  0  0  0
 15 19  1  0  0  0
  1  3  2  0  0  0
  2  9  2  0  0  0
  4  5  2  0  0  0
  6  8  2  0  0  0
  7 10  2  0  0  0
 11 18  2  0  0  0
M  END
> <rmsd>
0.387800813

$$$$
ZINC92124788


 22 24  0  0  0  0  0  0  0  0999 V2000
    6.2380   -2.8590    2.4995 C   0  0  0  0  0
    5.0418   -3.5443    2.2871 C   0  0  0  0  0
    6.4370   -1.6066    1.9184 C   0  0  0  0  0
    0.5765   -1.5016    4.7148 C   0  0  0  0  0
    0.0541   -1.4900    5.9894 C   0  0  0  0  0
   -0.0510    0.7262    4.9277 C   0  0  0  0  0
    4.2437   -1.7249    0.9123 C   0  0  0  0  0
    0.5160   -0.2178    4.0998 C   0  0  0  0  0
    4.0447   -2.9773    1.4934 C   0  0  0  0  0
    5.4400   -1.0395    1.1248 C   0  0  0  0  0
    3.1940   -1.1278    0.0759 C   0  0  0  0  0
    1.5689   -1.1930    2.0401 C   0  0  0  0  0
    0.8635   -0.3245   -0.1365 C   0  0  0  0  0
    1.0152    0.0721    2.7012 C   0  0  0  0  0
    0.2736    0.9041    0.5609 C   0  0  0  0  0
    1.1752    2.1331    0.4619 C   0  0  0  0  0
    1.9499   -0.8888    0.6581 N   0  0  0  0  0
    3.5022   -0.8679   -1.0860 O   0  0  0  0  0
   -0.0665    0.6092    1.9235 O   0  0  0  0  0
    2.8831   -3.6639    1.2999 O   0  0  0  0  0
    5.6550    0.1855    0.5672 O   0  0  0  0  0
   -0.5067    0.0641    6.4397 S   0  0  0  0  0
  1  2  1  0  0  0
  3 10  1  0  0  0
  4  8  1  0  0  0
  5 22  1  0  0  0
  6 22  1  0  0  0
  7  9  1  0  0  0
  7 11  1  0  0  0
  9 20  1  0  0  0
 10 21  1  0  0  0
 11 17  1  0  0  0
 12 14  1  0  0  0
 12 17  1  0  0  0
 13 15  1  0  0  0
 13 17  1  0  0  0
 14  8  1  0  0  0
 14 19  1  0  0  0
 15 16  1  0  0  0
 15 19  1  0  0  0
  1  3  2  0  0  0
  2  9  2  0  0  0
  4  5  2  0  0  0
  6  8  2  0  0  0
  7 10  2  0  0  0
 11 18  2  0  0  0
M  END
> <rmsd>
0.387800813

$$$$
ZINC92121575


 23 25  0  0  0  0  0  0  0  0999 V2000
    6.2768   -3.1132    2.3158 C   0  0  0  0  0
    5.0089   -3.6708    2.1510 C   0  0  0  0  0
    6.5619   -1.8579    1.7785 C   0  0  0  0  0
    4.3112   -1.7178    0.9115 C   0  0  0  0  0
    4.0261   -2.9731    1.4489 C   0  0  0  0  0
    5.5790   -1.1603    1.0764 C   0  0  0  0  0
    3.2647   -0.9749    0.1631 C   0  0  0  0  0
   -5.5617    0.3864    1.5354 C   0  0  0  0  0
   -4.4923    0.1044    2.5882 C   0  0  0  0  0
   -5.2314   -0.2770    0.2003 C   0  0  0  0  0
   -0.0263    2.2816   -0.1676 C   0  0  0  0  0
    1.1743    1.5374    0.4100 C   0  0  0  0  0
   -3.1006    0.4973    2.0967 C   0  0  0  0  0
   -3.8405    0.1152   -0.2947 C   0  0  0  0  0
   -1.3325    1.8118    0.4557 C   0  0  0  0  0
   -0.3164   -0.4383    0.9085 C   0  0  0  0  0
    0.9958    0.0226    0.2769 C   0  0  0  0  0
   -2.7803   -0.1774    0.7647 C   0  0  0  0  0
    2.1121   -0.6733    0.8723 N   0  0  0  0  0
   -1.4651    0.3179    0.2787 N   0  0  0  0  0
    3.4576   -0.6914   -1.0163 O   0  0  0  0  0
    2.7936   -3.5363    1.3006 O   0  0  0  0  0
    5.8788    0.0652    0.5604 O   0  0  0  0  0
  1  2  1  0  0  0
  3  6  1  0  0  0
  4  5  1  0  0  0
  4  7  1  0  0  0
  5 22  1  0  0  0
  6 23  1  0  0  0
  7 19  1  0  0  0
  8  9  1  0  0  0
  8 10  1  0  0  0
  9 13  1  0  0  0
 10 14  1  0  0  0
 11 12  1  0  0  0
 11 15  1  0  0  0
 12 17  1  0  0  0
 13 18  1  0  0  0
 14 18  1  0  0  0
 15 20  1  0  0  0
 16 17  1  0  0  0
 16 20  1  0  0  0
 17 19  1  0  0  0
 18 20  1  0  0  0
  1  3  2  0  0  0
  2  5  2  0  0  0
  4  6  2  0  0  0
  7 21  2  0  0  0
M  CHG  1  20   1
M  END
> <rmsd>
0.396190345

$$$$
ZINC59156828


 24 26  0  0  0  0  0  0  0  0999 V2000
    0.6636   -2.3420   -4.5283 C   0  0  0  0  0
    0.7705    3.7583   -0.0853 C   0  0  0  0  0
    0.6032   -0.9496   -4.5825 C   0  0  0  0  0
    1.2147   -2.9734   -3.4132 C   0  0  0  0  0
   -0.1105    2.8556   -0.6809 C   0  0  0  0  0
    2.1073    3.4071    0.1030 C   0  0  0  0  0
    1.0942   -0.1884   -3.5218 C   0  0  0  0  0
    1.7057   -2.2122   -2.3525 C   0  0  0  0  0
    0.3452    1.6018   -1.0881 C   0  0  0  0  0
    2.5630    2.1532   -0.3043 C   0  0  0  0  0
    5.3470   -3.7377    2.1227 C   0  0  0  0  0
    6.6104   -1.7207    1.7072 C   0  0  0  0  0
    4.3387   -1.9095    0.9070 C   0  0  0  0  0
    1.6454   -0.8197   -2.4067 C   0  0  0  0  0
    1.6820    1.2505   -0.8998 C   0  0  0  0  0
    6.5254   -3.0024    2.2510 C   0  0  0  0  0
    4.2536   -3.1912    1.4507 C   0  0  0  0  0
    5.5170   -1.1742    1.0352 C   0  0  0  0  0
    3.1959   -1.3372    0.2039 C   0  0  0  0  0
    3.3300   -0.4868   -0.7753 N   0  0  0  0  0
    2.1498   -0.0379   -1.3180 N   0  0  0  0  0
    7.5927   -3.5358    2.9060 O   0  0  0  0  0
    3.1123   -3.9274    1.3352 O   0  0  0  0  0
    5.6219    0.0803    0.5127 O   0  0  0  0  0
  1  3  1  0  0  0
  2  5  1  0  0  0
  4  8  1  0  0  0
  6 10  1  0  0  0
  7 14  1  0  0  0
  9 15  1  0  0  0
 11 16  1  0  0  0
 12 18  1  0  0  0
 13 17  1  0  0  0
 13 19  1  0  0  0
 14 21  1  0  0  0
 15 21  1  0  0  0
 16 22  1  0  0  0
 17 23  1  0  0  0
 18 24  1  0  0  0
 21 20  1  0  0  0
  1  4  2  0  0  0
  2  6  2  0  0  0
  3  7  2  0  0  0
  5  9  2  0  0  0
  8 14  2  0  0  0
 10 15  2  0  0  0
 11 17  2  0  0  0
 12 16  2  0  0  0
 13 18  2  0  0  0
 19 20  2  0  0  0
M  END
> <rmsd>
0.532327414

$$$$
ZINC59156828


 24 26  0  0  0  0  0  0  0  0999 V2000
    2.0265   -1.0093   -5.6101 C   0  0  0  0  0
   -0.0105    2.8413    0.5534 C   0  0  0  0  0
    0.9397   -1.1977   -4.7563 C   0  0  0  0  0
    3.2187   -0.4805   -5.1153 C   0  0  0  0  0
   -0.6147    1.7405   -0.0541 C   0  0  0  0  0
    1.3717    3.0108    0.4731 C   0  0  0  0  0
    1.0449   -0.8572   -3.4078 C   0  0  0  0  0
    3.3239   -0.1401   -3.7667 C   0  0  0  0  0
    0.1634    0.8092   -0.7418 C   0  0  0  0  0
    2.1497    2.0794   -0.2147 C   0  0  0  0  0
    5.1205   -3.6460    2.2920 C   0  0  0  0  0
    6.5176   -1.7250    1.8508 C   0  0  0  0  0
    4.2899   -1.8373    0.9224 C   0  0  0  0  0
    2.2371   -0.3284   -2.9129 C   0  0  0  0  0
    1.5456    0.9786   -0.8220 C   0  0  0  0  0
    6.3287   -2.9682    2.4544 C   0  0  0  0  0
    4.1011   -3.0806    1.5260 C   0  0  0  0  0
    5.4982   -1.1595    1.0848 C   0  0  0  0  0
    3.2245   -1.2452    0.1211 C   0  0  0  0  0
    3.4638   -0.4587   -0.8909 N   0  0  0  0  0
    2.3447    0.0214   -1.5283 N   0  0  0  0  0
    7.3238   -3.5203    3.2010 O   0  0  0  0  0
    2.9289   -3.7606    1.3785 O   0  0  0  0  0
    5.7039    0.0569    0.5052 O   0  0  0  0  0
  1  3  1  0  0  0
  2  5  1  0  0  0
  4  8  1  0  0  0
  6 10  1  0  0  0
  7 14  1  0  0  0
  9 15  1  0  0  0
 11 16  1  0  0  0
 12 18  1  0  0  0
 13 17  1  0  0  0
 13 19  1  0  0  0
 14 21  1  0  0  0
 15 21  1  0  0  0
 16 22  1  0  0  0
 17 23  1  0  0  0
 18 24  1  0  0  0
 21 20  1  0  0  0
  1  4  2  0  0  0
  2  6  2  0  0  0
  3  7  2  0  0  0
  5  9  2  0  0  0
  8 14  2  0  0  0
 10 15  2  0  0  0
 11 17  2  0  0  0
 12 16  2  0  0  0
 13 18  2  0  0  0
 19 20  2  0  0  0
M  END
> <rmsd>
0.332783729

$$$$
ZINC67787859


 23 25  0  0  0  0  0  0  0  0999 V2000
    6.3923   -3.0845    2.1802 C   0  0  0  0  0
    5.1505   -3.7039    2.0398 C   0  0  0  0  0
    6.5893   -1.7963    1.6829 C   0  0  0  0  0
    4.3026   -1.7470    0.9046 C   0  0  0  0  0
    4.1056   -3.0353    1.4021 C   0  0  0  0  0
    5.5444   -1.1275    1.0451 C   0  0  0  0  0
    3.1905   -1.0348    0.2242 C   0  0  0  0  0
    1.7797    2.1147   -0.2729 C   0  0  0  0  0
    0.2828    2.1898   -0.3456 C   0  0  0  0  0
   -1.4694    1.9981    2.4828 C   0  0  0  0  0
   -0.0551    1.0904    4.2215 C   0  0  0  0  0
   -2.7147    1.4153    3.1428 C   0  0  0  0  0
   -1.2593    0.4814    4.9320 C   0  0  0  0  0
    0.9413    1.3044    0.6715 C   0  0  0  0  0
   -3.6980    0.8043    5.3539 C   0  0  0  0  0
    0.8940    1.7270    2.1003 C   0  0  0  0  0
    0.8778   -0.1673    0.4587 C   0  0  0  0  0
   -0.2840    1.1809    2.7735 N   0  0  0  0  0
    2.0462   -0.8203    0.9834 N   0  0  0  0  0
   -2.4829    1.3091    4.6290 N   0  0  0  0  0
    3.3231   -0.6973   -0.9493 O   0  0  0  0  0
    2.9005   -3.6596    1.2752 O   0  0  0  0  0
    5.7588    0.1307    0.5669 O   0  0  0  0  0
  1  2  1  0  0  0
  3  6  1  0  0  0
  4  5  1  0  0  0
  4  7  1  0  0  0
  5 22  1  0  0  0
  6 23  1  0  0  0
  7 19  1  0  0  0
  8  9  1  0  0  0
  8 14  1  0  0  0
  9 14  1  0  0  0
 10 12  1  0  0  0
 10 18  1  0  0  0
 11 13  1  0  0  0
 11 18  1  0  0  0
 12 20  1  0  0  0
 13 20  1  0  0  0
 14 16  1  0  0  0
 14 17  1  0  0  0
 15 20  1  0  0  0
 16 18  1  0  0  0
 17 19  1  0  0  0
  1  3  2  0  0  0
  2  5  2  0  0  0
  4  6  2  0  0  0
  7 21  2  0  0  0
M  CHG  1  20   1
M  END
> <rmsd>
0.35420832

$$$$
ZINC92124484


 22 23  0  0  0  0  0  0  0  0999 V2000
    6.3413   -2.9351    2.4170 C   0  0  0  0  0
    1.1839    1.8722   -0.9183 C   0  0  0  0  0
    5.1412   -3.6178    2.2193 C   0  0  0  0  0
    6.5217   -1.6671    1.8645 C   0  0  0  0  0
    1.1840    3.2659   -0.8632 C   0  0  0  0  0
    0.5200    3.1741    1.4581 C   0  0  0  0  0
    4.3016   -1.7645    0.9163 C   0  0  0  0  0
    0.8519    1.1293    0.2147 C   0  0  0  0  0
    0.5199    1.7803    1.4029 C   0  0  0  0  0
    4.1213   -3.0325    1.4690 C   0  0  0  0  0
    5.5018   -1.0818    1.1141 C   0  0  0  0  0
    0.8522    3.9169    0.3251 C   0  0  0  0  0
    3.2356   -1.1525    0.1311 C   0  0  0  0  0
    0.6851   -0.0272    5.1124 C   0  0  0  0  0
    0.8577   -0.3697    0.1305 C   0  0  0  0  0
    0.1591    1.0064    2.6283 C   0  0  0  0  0
    2.0149   -0.9433    0.7791 N   0  0  0  0  0
    3.4234   -0.8602   -1.0608 O   0  0  0  0  0
    2.9562   -3.7170    1.2892 O   0  0  0  0  0
    5.6989    0.1584    0.5839 O   0  0  0  0  0
    0.8528    5.2552    0.3784 F   0  0  0  0  0
    1.5085    0.9644    3.8458 S   0  0  0  0  0
  1  3  1  0  0  0
  2  8  1  0  0  0
  4 11  1  0  0  0
  5 12  1  0  0  0
  6  9  1  0  0  0
  7 10  1  0  0  0
  7 13  1  0  0  0
 10 19  1  0  0  0
 11 20  1  0  0  0
 12 21  1  0  0  0
 13 17  1  0  0  0
 14 22  1  0  0  0
 15  8  1  0  0  0
 15 17  1  0  0  0
 16  9  1  0  0  0
 16 22  1  0  0  0
  1  4  2  0  0  0
  2  5  2  0  0  0
  3 10  2  0  0  0
  6 12  2  0  0  0
  7 11  2  0  0  0
  8  9  2  0  0  0
 13 18  2  0  0  0
M  END
> <rmsd>
0.284904093

$$$$
ZINC92124484


 22 23  0  0  0  0  0  0  0  0999 V2000
    6.3410   -2.9348    2.4174 C   0  0  0  0  0
    1.1841    1.8727   -0.9185 C   0  0  0  0  0
    5.1408   -3.6174    2.2196 C   0  0  0  0  0
    6.5214   -1.6668    1.8648 C   0  0  0  0  0
    1.1843    3.2664   -0.8634 C   0  0  0  0  0
    0.5200    3.1746    1.4577 C   0  0  0  0  0
    4.3015   -1.7641    0.9165 C   0  0  0  0  0
    0.8519    1.1298    0.2144 C   0  0  0  0  0
    0.5199    1.7808    1.4026 C   0  0  0  0  0
    4.1210   -3.0321    1.4691 C   0  0  0  0  0
    5.5017   -1.0815    1.1143 C   0  0  0  0  0
    0.8523    3.9174    0.3248 C   0  0  0  0  0
    3.2355   -1.1521    0.1312 C   0  0  0  0  0
   -1.5494   -0.4946    4.1584 C   0  0  0  0  0
    0.8577   -0.3692    0.1303 C   0  0  0  0  0
    0.1589    1.0070    2.6280 C   0  0  0  0  0
    2.0148   -0.9429    0.7791 N   0  0  0  0  0
    3.4235   -0.8599   -1.0608 O   0  0  0  0  0
    2.9559   -3.7165    1.2893 O   0  0  0  0  0
    5.6989    0.1587    0.5842 O   0  0  0  0  0
    0.8530    5.2557    0.3781 F   0  0  0  0  0
   -1.5262    0.3292    2.5503 S   0  0  0  0  0
  1  3  1  0  0  0
  2  8  1  0  0  0
  4 11  1  0  0  0
  5 12  1  0  0  0
  6  9  1  0  0  0
  7 10  1  0  0  0
  7 13  1  0  0  0
 10 19  1  0  0  0
 11 20  1  0  0  0
 12 21  1  0  0  0
 13 17  1  0  0  0
 14 22  1  0  0  0
 15  8  1  0  0  0
 15 17  1  0  0  0
 16  9  1  0  0  0
 16 22  1  0  0  0
  1  4  2  0  0  0
  2  5  2  0  0  0
  3 10  2  0  0  0
  6 12  2  0  0  0
  7 11  2  0  0  0
  8  9  2  0  0  0
 13 18  2  0  0  0
M  END
> <rmsd>
0.284949452

$$$$
ZINC92123239


 22 23  0  0  0  0  0  0  0  0999 V2000
    3.8358    4.2044    2.4310 C   0  0  0  0  0
    4.6642    3.5848    3.3666 C   0  0  0  0  0
    6.3688   -3.1544    2.2158 C   0  0  0  0  0
    2.6784    3.5623    1.9909 C   0  0  0  0  0
    5.1066   -3.7301    2.0717 C   0  0  0  0  0
    6.6165   -1.8799    1.7059 C   0  0  0  0  0
    4.3354    2.3231    3.8619 C   0  0  0  0  0
    4.3395   -1.7570    0.9076 C   0  0  0  0  0
    4.0919   -3.0315    1.4176 C   0  0  0  0  0
    5.6017   -1.1811    1.0518 C   0  0  0  0  0
    2.3495    2.3005    2.4862 C   0  0  0  0  0
    3.1780    1.6809    3.4218 C   0  0  0  0  0
    3.2591   -1.0129    0.2103 C   0  0  0  0  0
   -0.0661    2.2031    0.0721 C   0  0  0  0  0
    0.9774   -0.0602    0.4164 C   0  0  0  0  0
    1.1275    1.4432    0.6349 C   0  0  0  0  0
    2.1237   -0.7525    0.9607 N   0  0  0  0  0
    3.4128   -0.6938   -0.9657 O   0  0  0  0  0
    2.8655   -3.6127    1.2888 O   0  0  0  0  0
    5.8651    0.0632    0.5619 O   0  0  0  0  0
    1.2082    1.6942    2.0366 O   0  0  0  0  0
    2.7958    0.1209    4.0514 Cl  0  0  0  0  0
  1  2  1  0  0  0
  3  5  1  0  0  0
  4 11  1  0  0  0
  6 10  1  0  0  0
  7 12  1  0  0  0
  8  9  1  0  0  0
  8 13  1  0  0  0
  9 19  1  0  0  0
 10 20  1  0  0  0
 11 21  1  0  0  0
 12 22  1  0  0  0
 13 17  1  0  0  0
 14 16  1  0  0  0
 15 16  1  0  0  0
 15 17  1  0  0  0
 16 21  1  0  0  0
  1  4  2  0  0  0
  2  7  2  0  0  0
  3  6  2  0  0  0
  5  9  2  0  0  0
  8 10  2  0  0  0
 11 12  2  0  0  0
 13 18  2  0  0  0
M  END
> <rmsd>
0.355640382

$$$$
ZINC92123239


 22 23  0  0  0  0  0  0  0  0999 V2000
    3.9187    2.4377    3.8499 C   0  0  0  0  0
    3.8887    1.5391    4.9163 C   0  0  0  0  0
    6.4304   -3.1877    2.1031 C   0  0  0  0  0
    2.8641    2.4726    2.9375 C   0  0  0  0  0
    5.1694   -3.7715    1.9826 C   0  0  0  0  0
    6.6502   -1.8968    1.6224 C   0  0  0  0  0
    2.8042    0.6755    5.0704 C   0  0  0  0  0
    4.3479   -1.7736    0.9006 C   0  0  0  0  0
    4.1281   -3.0645    1.3813 C   0  0  0  0  0
    5.6089   -1.1898    1.0212 C   0  0  0  0  0
    1.7796    1.6090    3.0915 C   0  0  0  0  0
    1.7496    0.7104    4.1580 C   0  0  0  0  0
    3.2391   -1.0207    0.2596 C   0  0  0  0  0
    0.1717    2.2054   -0.0779 C   0  0  0  0  0
    0.9568   -0.0968    0.5651 C   0  0  0  0  0
    1.1004    1.4012    0.8220 C   0  0  0  0  0
    2.1261   -0.7929    1.0528 N   0  0  0  0  0
    3.3523   -0.6668   -0.9111 O   0  0  0  0  0
    2.9035   -3.6539    1.2748 O   0  0  0  0  0
    5.8454    0.0705    0.5592 O   0  0  0  0  0
    0.7593    1.6653    2.1816 O   0  0  0  0  0
    0.4213   -0.3690    4.3729 Cl  0  0  0  0  0
  1  2  1  0  0  0
  3  5  1  0  0  0
  4 11  1  0  0  0
  6 10  1  0  0  0
  7 12  1  0  0  0
  8  9  1  0  0  0
  8 13  1  0  0  0
  9 19  1  0  0  0
 10 20  1  0  0  0
 11 21  1  0  0  0
 12 22  1  0  0  0
 13 17  1  0  0  0
 14 16  1  0  0  0
 15 16  1  0  0  0
 15 17  1  0  0  0
 16 21  1  0  0  0
  1  4  2  0  0  0
  2  7  2  0  0  0
  3  6  2  0  0  0
  5  9  2  0  0  0
  8 10  2  0  0  0
 11 12  2  0  0  0
 13 18  2  0  0  0
M  END
> <rmsd>
0.30517447

$$$$
ZINC92123239


 22 23  0  0  0  0  0  0  0  0999 V2000
    4.0689    3.9287    2.4663 C   0  0  0  0  0
    3.4900    4.9749    3.1846 C   0  0  0  0  0
    6.3685   -3.1541    2.2155 C   0  0  0  0  0
    3.2951    2.8323    2.0854 C   0  0  0  0  0
    5.1063   -3.7298    2.0714 C   0  0  0  0  0
    6.6162   -1.8796    1.7055 C   0  0  0  0  0
    2.1375    4.9249    3.5219 C   0  0  0  0  0
    4.3392   -1.7567    0.9072 C   0  0  0  0  0
    4.0916   -3.0311    1.4173 C   0  0  0  0  0
    5.6014   -1.1809    1.0514 C   0  0  0  0  0
    1.9426    2.7822    2.4228 C   0  0  0  0  0
    1.3638    3.8285    3.1411 C   0  0  0  0  0
    3.2588   -1.0126    0.2099 C   0  0  0  0  0
   -0.0664    2.2034    0.0715 C   0  0  0  0  0
    0.9771   -0.0599    0.4159 C   0  0  0  0  0
    1.1272    1.4435    0.6344 C   0  0  0  0  0
    2.1234   -0.7521    0.9603 N   0  0  0  0  0
    3.4125   -0.6936   -0.9662 O   0  0  0  0  0
    2.8652   -3.6123    1.2885 O   0  0  0  0  0
    5.8649    0.0635    0.5614 O   0  0  0  0  0
    1.2080    1.6946    2.0361 O   0  0  0  0  0
   -0.3062    3.7930    3.5719 Cl  0  0  0  0  0
  1  2  1  0  0  0
  3  5  1  0  0  0
  4 11  1  0  0  0
  6 10  1  0  0  0
  7 12  1  0  0  0
  8  9  1  0  0  0
  8 13  1  0  0  0
  9 19  1  0  0  0
 10 20  1  0  0  0
 11 21  1  0  0  0
 12 22  1  0  0  0
 13 17  1  0  0  0
 14 16  1  0  0  0
 15 16  1  0  0  0
 15 17  1  0  0  0
 16 21  1  0  0  0
  1  4  2  0  0  0
  2  7  2  0  0  0
  3  6  2  0  0  0
  5  9  2  0  0  0
  8 10  2  0  0  0
 11 12  2  0  0  0
 13 18  2  0  0  0
M  END
> <rmsd>
0.355724156

$$$$
ZINC92125262


 22 23  0  0  0  0  0  0  0  0999 V2000
   -3.0887    1.4422   -1.0865 C   0  0  0  0  0
   -2.7542    2.7778   -1.3093 C   0  0  0  0  0
    6.3000   -2.8074    2.5806 C   0  0  0  0  0
   -2.2132    0.6111   -0.3872 C   0  0  0  0  0
    5.1437   -3.5502    2.3427 C   0  0  0  0  0
    6.4572   -1.5534    1.9901 C   0  0  0  0  0
   -1.5441    3.2825   -0.8333 C   0  0  0  0  0
    4.3016   -1.7852    0.9240 C   0  0  0  0  0
   -1.0032    1.1159    0.0889 C   0  0  0  0  0
    4.1445   -3.0392    1.5145 C   0  0  0  0  0
    5.4580   -1.0424    1.1618 C   0  0  0  0  0
   -0.6686    2.4515   -0.1340 C   0  0  0  0  0
    3.2572   -1.2511    0.0574 C   0  0  0  0  0
   -1.3643   -0.1650    2.7783 C   0  0  0  0  0
    0.8518   -0.5769   -0.1066 C   0  0  0  0  0
   -0.0819    0.1821    0.8398 C   0  0  0  0  0
    1.9933   -1.0737    0.6275 N   0  0  0  0  0
    3.5005   -0.9939   -1.1328 O   0  0  0  0  0
    3.0222   -3.7817    1.2965 O   0  0  0  0  0
    5.6316    0.1853    0.5957 O   0  0  0  0  0
   -0.8811   -0.7439    1.5764 O   0  0  0  0  0
    0.8194    3.1115    0.4399 Cl  0  0  0  0  0
  1  2  1  0  0  0
  3  5  1  0  0  0
  4  9  1  0  0  0
  6 11  1  0  0  0
  7 12  1  0  0  0
  8 10  1  0  0  0
  8 13  1  0  0  0
 10 19  1  0  0  0
 11 20  1  0  0  0
 12 22  1  0  0  0
 13 17  1  0  0  0
 14 21  1  0  0  0
 15 16  1  0  0  0
 15 17  1  0  0  0
 16  9  1  0  0  0
 16 21  1  0  0  0
  1  4  2  0  0  0
  2  7  2  0  0  0
  3  6  2  0  0  0
  5 10  2  0  0  0
  8 11  2  0  0  0
  9 12  2  0  0  0
 13 18  2  0  0  0
M  END
> <rmsd>
0.490513742

$$$$
ZINC92107604


 19 20  0  0  0  0  0  0  0  0999 V2000
    1.1914    3.2498   -0.8828 C   0  0  0  0  0
    0.8656    3.9188    0.2970 C   0  0  0  0  0
    6.3452   -2.9372    2.4113 C   0  0  0  0  0
    1.1842    1.8553   -0.9187 C   0  0  0  0  0
    5.1448   -3.6197    2.2147 C   0  0  0  0  0
    6.5245   -1.6683    1.8603 C   0  0  0  0  0
    0.5327    3.1935    1.4409 C   0  0  0  0  0
    4.3027   -1.7645    0.9162 C   0  0  0  0  0
    0.8512    1.1300    0.2254 C   0  0  0  0  0
    4.1234   -3.0334    1.4671 C   0  0  0  0  0
    5.5032   -1.0821    1.1127 C   0  0  0  0  0
    0.5255    1.7990    1.4052 C   0  0  0  0  0
    3.2351   -1.1515    0.1339 C   0  0  0  0  0
    0.8571   -0.3689    0.1388 C   0  0  0  0  0
    2.0155   -0.9434    0.7845 N   0  0  0  0  0
    3.4207   -0.8574   -1.0580 O   0  0  0  0  0
    2.9581   -3.7178    1.2885 O   0  0  0  0  0
    5.6991    0.1590    0.5841 O   0  0  0  0  0
    0.0693    0.8569    2.9866 Br  0  0  0  0  0
  1  2  1  0  0  0
  3  5  1  0  0  0
  4  9  1  0  0  0
  6 11  1  0  0  0
  7 12  1  0  0  0
  8 10  1  0  0  0
  8 13  1  0  0  0
 10 17  1  0  0  0
 11 18  1  0  0  0
 12 19  1  0  0  0
 13 15  1  0  0  0
 14  9  1  0  0  0
 14 15  1  0  0  0
  1  4  2  0  0  0
  2  7  2  0  0  0
  3  6  2  0  0  0
  5 10  2  0  0  0
  8 11  2  0  0  0
  9 12  2  0  0  0
 13 16  2  0  0  0
M  END
> <rmsd>
0.2856251

$$$$
ZINC92126877


 24 26  0  0  0  0  0  0  0  0999 V2000
    0.2151    5.4148   -2.9164 C   0  0  0  0  0
    6.3896   -3.0676    2.1267 C   0  0  0  0  0
   -0.2544    4.8024   -0.5900 C   0  0  0  0  0
   -0.1081    3.9551    0.5133 C   0  0  0  0  0
    5.1446   -3.6685    1.9415 C   0  0  0  0  0
    6.6055   -1.7610    1.6888 C   0  0  0  0  0
    1.1972    3.3939   -1.9576 C   0  0  0  0  0
    0.3908    4.5249   -1.8113 C   0  0  0  0  0
    4.3312   -1.6562    0.8803 C   0  0  0  0  0
    0.6890    2.8404    0.3628 C   0  0  0  0  0
    1.3318    2.5696   -0.8632 C   0  0  0  0  0
    4.1154   -2.9628    1.3182 C   0  0  0  0  0
    5.5762   -1.0552    1.0656 C   0  0  0  0  0
    1.8864    0.9058    0.5962 C   0  0  0  0  0
    3.2308   -0.9015    0.2132 C   0  0  0  0  0
   -0.5482    0.7821    2.7604 C   0  0  0  0  0
    0.5423    1.7870    2.6056 C   0  0  0  0  0
    0.0726    6.1373   -3.8135 N   0  0  0  0  0
    2.4282   -0.1747    1.0617 N   0  0  0  0  0
    2.0593    1.3864   -0.7085 N   0  0  0  0  0
    1.0339    1.8169    1.2501 N   0  0  0  0  0
    3.1186   -0.9773   -1.0075 O   0  0  0  0  0
    2.9063   -3.5691    1.1483 O   0  0  0  0  0
    5.8086    0.2207    0.6462 O   0  0  0  0  0
  2  5  1  0  0  0
  3  8  1  0  0  0
  4 10  1  0  0  0
  6 13  1  0  0  0
  7 11  1  0  0  0
  8  1  1  0  0  0
  9 12  1  0  0  0
  9 15  1  0  0  0
 10 21  1  0  0  0
 11 20  1  0  0  0
 12 23  1  0  0  0
 13 24  1  0  0  0
 14 20  1  0  0  0
 14 21  1  0  0  0
 15 19  1  0  0  0
 16 17  1  0  0  0
 17 21  1  0  0  0
  2  6  2  0  0  0
  3  4  2  0  0  0
  5 12  2  0  0  0
  7  8  2  0  0  0
  9 13  2  0  0  0
 10 11  2  0  0  0
 14 19  2  0  0  0
 15 22  2  0  0  0
  1 18  3  0  0  0
M  END
> <rmsd>
0.525930345

$$$$
ZINC92124358


 23 24  0  0  0  0  0  0  0  0999 V2000
    6.4363   -3.2011    2.0844 C   0  0  0  0  0
    5.1726   -3.7802    1.9685 C   0  0  0  0  0
    6.6576   -1.9089    1.6080 C   0  0  0  0  0
    4.3517   -1.7751    0.8996 C   0  0  0  0  0
    4.1304   -3.0672    1.3760 C   0  0  0  0  0
    5.6153   -1.1958    1.0156 C   0  0  0  0  0
    3.2419   -1.0157    0.2681 C   0  0  0  0  0
    1.1098    1.1449    4.5802 C   0  0  0  0  0
    3.0320    1.7011    3.2226 C   0  0  0  0  0
    1.9815    0.3608    5.5556 C   0  0  0  0  0
    3.9593    0.9332    4.1585 C   0  0  0  0  0
    5.6277    0.9284    6.5308 C   0  0  0  0  0
    0.1260    2.2041   -0.0986 C   0  0  0  0  0
    0.8133    1.8455    2.2941 C   0  0  0  0  0
    0.9644   -0.0857    0.5903 C   0  0  0  0  0
    4.2725    0.2557    6.5402 C   0  0  0  0  0
    1.0670    1.4307    0.8322 C   0  0  0  0  0
    1.6803    1.1262    3.2268 N   0  0  0  0  0
    2.1327   -0.7870    1.0680 N   0  0  0  0  0
    3.3743    0.9386    5.5484 N   0  0  0  0  0
    3.3497   -0.6572   -0.9017 O   0  0  0  0  0
    2.9032   -3.6521    1.2740 O   0  0  0  0  0
    5.8533    0.0657    0.5576 O   0  0  0  0  0
  1  2  1  0  0  0
  3  6  1  0  0  0
  4  5  1  0  0  0
  4  7  1  0  0  0
  5 22  1  0  0  0
  6 23  1  0  0  0
  7 19  1  0  0  0
  8 10  1  0  0  0
  8 18  1  0  0  0
  9 11  1  0  0  0
  9 18  1  0  0  0
 10 20  1  0  0  0
 11 20  1  0  0  0
 12 16  1  0  0  0
 13 17  1  0  0  0
 14 17  1  0  0  0
 14 18  1  0  0  0
 15 17  1  0  0  0
 15 19  1  0  0  0
 16 20  1  0  0  0
  1  3  2  0  0  0
  2  5  2  0  0  0
  4  6  2  0  0  0
  7 21  2  0  0  0
M  CHG  1  20   1
M  END
> <rmsd>
0.322858363

$$$$
ZINC92124356


 23 24  0  0  0  0  0  0  0  0999 V2000
    6.1982   -2.8048    2.5752 C   0  0  0  0  0
    5.0133   -3.5027    2.3416 C   0  0  0  0  0
    6.4025   -1.5591    1.9818 C   0  0  0  0  0
    4.2371   -1.7093    0.9209 C   0  0  0  0  0
    4.0328   -2.9550    1.5144 C   0  0  0  0  0
    5.4220   -1.0115    1.1545 C   0  0  0  0  0
    3.1932   -1.1261    0.0393 C   0  0  0  0  0
   -2.5827    0.3763    1.4344 C   0  0  0  0  0
   -1.5183   -0.7020    3.3190 C   0  0  0  0  0
   -3.7005   -0.6610    1.4273 C   0  0  0  0  0
   -2.6053   -1.7704    3.3667 C   0  0  0  0  0
   -5.2031   -2.6135    4.3425 C   0  0  0  0  0
    1.4439    2.0100    0.5162 C   0  0  0  0  0
   -0.2594    0.7973    1.9145 C   0  0  0  0  0
    0.8341   -0.3710   -0.1050 C   0  0  0  0  0
   -5.0249   -2.1743    2.9056 C   0  0  0  0  0
    0.3346    0.9520    0.5015 C   0  0  0  0  0
   -1.3328   -0.1952    1.9529 N   0  0  0  0  0
    1.9565   -0.9088    0.6273 N   0  0  0  0  0
   -3.8894   -1.1941    2.8252 N   0  0  0  0  0
    3.4627   -0.8918   -1.1359 O   0  0  0  0  0
    2.8821   -3.6538    1.3005 O   0  0  0  0  0
    5.6419    0.2075    0.5854 O   0  0  0  0  0
  1  2  1  0  0  0
  3  6  1  0  0  0
  4  5  1  0  0  0
  4  7  1  0  0  0
  5 22  1  0  0  0
  6 23  1  0  0  0
  7 19  1  0  0  0
  8 10  1  0  0  0
  8 18  1  0  0  0
  9 11  1  0  0  0
  9 18  1  0  0  0
 10 20  1  0  0  0
 11 20  1  0  0  0
 12 16  1  0  0  0
 13 17  1  0  0  0
 14 17  1  0  0  0
 14 18  1  0  0  0
 15 17  1  0  0  0
 15 19  1  0  0  0
 16 20  1  0  0  0
  1  3  2  0  0  0
  2  5  2  0  0  0
  4  6  2  0  0  0
  7 21  2  0  0  0
M  CHG  1  20   1
M  END
> <rmsd>
0.504144609

$$$$
ZINC92124580


 23 24  0  0  0  0  0  0  0  0999 V2000
    6.3401   -2.9342    2.4185 C   0  0  0  0  0
    0.8489    3.9170    0.3327 C   0  0  0  0  0
    5.1400   -3.6168    2.2205 C   0  0  0  0  0
    6.5209   -1.6665    1.8655 C   0  0  0  0  0
    0.5170    3.1693    1.4625 C   0  0  0  0  0
    1.1844    1.8777   -0.9184 C   0  0  0  0  0
    4.3014   -1.7640    0.9162 C   0  0  0  0  0
    1.1826    3.2712   -0.8578 C   0  0  0  0  0
    0.8525    1.1299    0.2113 C   0  0  0  0  0
    4.1206   -3.0317    1.4693 C   0  0  0  0  0
    5.5016   -1.0814    1.1143 C   0  0  0  0  0
    0.5187    1.7758    1.4017 C   0  0  0  0  0
    3.2359   -1.1523    0.1301 C   0  0  0  0  0
    1.5360    4.0713   -2.0657 C   0  0  0  0  0
    0.8582   -0.3691    0.1277 C   0  0  0  0  0
   -0.7174    1.6570    3.4303 C   0  0  0  0  0
    2.0149   -0.9426    0.7773 N   0  0  0  0  0
    3.4245   -0.8605   -1.0619 O   0  0  0  0  0
    2.9555   -3.7162    1.2892 O   0  0  0  0  0
    5.6991    0.1585    0.5837 O   0  0  0  0  0
    0.1935    1.0611    2.5153 O   0  0  0  0  0
   -1.4033    0.6533    4.0357 F   0  0  0  0  0
   -0.0195    2.2896    4.4052 F   0  0  0  0  0
  1  3  1  0  0  0
  2  8  1  0  0  0
  4 11  1  0  0  0
  5 12  1  0  0  0
  6  9  1  0  0  0
  7 10  1  0  0  0
  7 13  1  0  0  0
 10 19  1  0  0  0
 11 20  1  0  0  0
 12 21  1  0  0  0
 13 17  1  0  0  0
 14  8  1  0  0  0
 15  9  1  0  0  0
 15 17  1  0  0  0
 16 21  1  0  0  0
 16 22  1  0  0  0
 16 23  1  0  0  0
  1  4  2  0  0  0
  2  5  2  0  0  0
  3 10  2  0  0  0
  6  8  2  0  0  0
  7 11  2  0  0  0
  9 12  2  0  0  0
 13 18  2  0  0  0
M  END
> <rmsd>
0.284418315

$$$$
ZINC92124580


 23 24  0  0  0  0  0  0  0  0999 V2000
    6.3403   -2.9337    2.4187 C   0  0  0  0  0
    0.8488    3.9173    0.3329 C   0  0  0  0  0
    5.1401   -3.6163    2.2209 C   0  0  0  0  0
    6.5210   -1.6660    1.8656 C   0  0  0  0  0
    0.5170    3.1697    1.4628 C   0  0  0  0  0
    1.1841    1.8779   -0.9181 C   0  0  0  0  0
    4.3015   -1.7637    0.9165 C   0  0  0  0  0
    1.1823    3.2714   -0.8576 C   0  0  0  0  0
    0.8524    1.1302    0.2117 C   0  0  0  0  0
    4.1207   -3.0313    1.4697 C   0  0  0  0  0
    5.5016   -1.0810    1.1144 C   0  0  0  0  0
    0.5188    1.7761    1.4021 C   0  0  0  0  0
    3.2358   -1.1520    0.1305 C   0  0  0  0  0
    1.5357    4.0714   -2.0656 C   0  0  0  0  0
    0.8581   -0.3688    0.1283 C   0  0  0  0  0
    1.0048    1.2453    3.6691 C   0  0  0  0  0
    2.0149   -0.9423    0.7778 N   0  0  0  0  0
    3.4243   -0.8603   -1.0616 O   0  0  0  0  0
    2.9556   -3.7158    1.2897 O   0  0  0  0  0
    5.6991    0.1589    0.5837 O   0  0  0  0  0
    0.1936    1.0615    2.5158 O   0  0  0  0  0
    0.5096    0.4453    4.6485 F   0  0  0  0  0
    2.2588    0.8021    3.4067 F   0  0  0  0  0
  1  3  1  0  0  0
  2  8  1  0  0  0
  4 11  1  0  0  0
  5 12  1  0  0  0
  6  9  1  0  0  0
  7 10  1  0  0  0
  7 13  1  0  0  0
 10 19  1  0  0  0
 11 20  1  0  0  0
 12 21  1  0  0  0
 13 17  1  0  0  0
 14  8  1  0  0  0
 15  9  1  0  0  0
 15 17  1  0  0  0
 16 21  1  0  0  0
 16 22  1  0  0  0
 16 23  1  0  0  0
  1  4  2  0  0  0
  2  5  2  0  0  0
  3 10  2  0  0  0
  6  8  2  0  0  0
  7 11  2  0  0  0
  9 12  2  0  0  0
 13 18  2  0  0  0
M  END
> <rmsd>
0.284344077

$$$$
ZINC92124580


 23 24  0  0  0  0  0  0  0  0999 V2000
    6.3338   -2.9290    2.4288 C   0  0  0  0  0
    0.8354    3.9139    0.3760 C   0  0  0  0  0
    5.1342   -3.6120    2.2287 C   0  0  0  0  0
    6.5165   -1.6627    1.8732 C   0  0  0  0  0
    1.1763    3.2959   -0.8270 C   0  0  0  0  0
    0.5126    1.7482    1.3971 C   0  0  0  0  0
    4.3000   -1.7624    0.9171 C   0  0  0  0  0
    0.5036    3.1400    1.4882 C   0  0  0  0  0
    0.8535    1.1301    0.1940 C   0  0  0  0  0
    4.1173   -3.0287    1.4728 C   0  0  0  0  0
    5.4996   -1.0794    1.1173 C   0  0  0  0  0
    1.1853    1.9040   -0.9181 C   0  0  0  0  0
    3.2370   -1.1525    0.1261 C   0  0  0  0  0
    0.1407    3.8015    2.7745 C   0  0  0  0  0
    0.8593   -0.3691    0.1143 C   0  0  0  0  0
    2.4279    2.0155   -2.9430 C   0  0  0  0  0
    2.0139   -0.9411    0.7689 N   0  0  0  0  0
    3.4294   -0.8638   -1.0660 O   0  0  0  0  0
    2.9527   -3.7135    1.2907 O   0  0  0  0  0
    5.6989    0.1592    0.5842 O   0  0  0  0  0
    1.5193    1.3169   -2.1015 O   0  0  0  0  0
    3.1233    1.0887   -3.6516 F   0  0  0  0  0
    1.7277    2.7451   -3.8460 F   0  0  0  0  0
  1  3  1  0  0  0
  2  8  1  0  0  0
  4 11  1  0  0  0
  5 12  1  0  0  0
  6  9  1  0  0  0
  7 10  1  0  0  0
  7 13  1  0  0  0
 10 19  1  0  0  0
 11 20  1  0  0  0
 12 21  1  0  0  0
 13 17  1  0  0  0
 14  8  1  0  0  0
 15  9  1  0  0  0
 15 17  1  0  0  0
 16 21  1  0  0  0
 16 22  1  0  0  0
 16 23  1  0  0  0
  1  4  2  0  0  0
  2  5  2  0  0  0
  3 10  2  0  0  0
  6  8  2  0  0  0
  7 11  2  0  0  0
  9 12  2  0  0  0
 13 18  2  0  0  0
M  END
> <rmsd>
0.283971846

$$$$
ZINC92123610


 24 26  0  0  0  0  0  0  0  0999 V2000
    6.3387   -3.0072    2.3803 C   0  0  0  0  0
    0.8050    1.1976   -1.3748 C   0  0  0  0  0
    0.6080    1.1876    1.0331 C   0  0  0  0  0
    0.7859    2.5922   -1.3707 C   0  0  0  0  0
    0.5887    2.5824    1.0372 C   0  0  0  0  0
    5.1207   -3.6695    2.2277 C   0  0  0  0  0
    6.5306   -1.7561    1.7940 C   0  0  0  0  0
    0.6822    6.7575   -0.7931 C   0  0  0  0  0
    0.5708    6.6204    0.6035 C   0  0  0  0  0
    0.7373    5.4675   -1.2615 C   0  0  0  0  0
    4.2864   -1.8299    0.9022 C   0  0  0  0  0
    0.7160    0.4952   -0.1729 C   0  0  0  0  0
    0.6777    3.2847   -0.1647 C   0  0  0  0  0
    4.0946   -3.0810    1.4886 C   0  0  0  0  0
    5.5045   -1.1675    1.0549 C   0  0  0  0  0
    3.2138   -1.2145    0.1288 C   0  0  0  0  0
   -0.5364   -1.6218    0.4118 C   0  0  0  0  0
    0.7369   -1.0181   -0.1774 C   0  0  0  0  0
    0.5557    5.3440    0.9967 N   0  0  0  0  0
    0.6584    4.6673   -0.1599 N   0  0  0  0  0
    1.9046   -1.5286    0.5045 N   0  0  0  0  0
    3.4787   -0.4673   -0.8267 O   0  0  0  0  0
    2.9120   -3.7455    1.3530 O   0  0  0  0  0
    5.7130    0.0559    0.4912 O   0  0  0  0  0
  1  6  1  0  0  0
  2 12  1  0  0  0
  3  5  1  0  0  0
  4 13  1  0  0  0
  7 15  1  0  0  0
  8  9  1  0  0  0
 10 20  1  0  0  0
 11 14  1  0  0  0
 11 16  1  0  0  0
 13 20  1  0  0  0
 14 23  1  0  0  0
 15 24  1  0  0  0
 16 21  1  0  0  0
 17 18  1  0  0  0
 18 12  1  0  0  0
 18 21  1  0  0  0
 20 19  1  0  0  0
  1  7  2  0  0  0
  2  4  2  0  0  0
  3 12  2  0  0  0
  5 13  2  0  0  0
  6 14  2  0  0  0
  8 10  2  0  0  0
  9 19  2  0  0  0
 11 15  2  0  0  0
 16 22  2  0  0  0
M  END
> <rmsd>
0.344249815

$$$$
ZINC92123610


 24 26  0  0  0  0  0  0  0  0999 V2000
    6.3387   -3.0072    2.3798 C   0  0  0  0  0
    0.8050    1.1976   -1.3753 C   0  0  0  0  0
    0.6079    1.1876    1.0326 C   0  0  0  0  0
    0.7858    2.5923   -1.3711 C   0  0  0  0  0
    0.5887    2.5824    1.0368 C   0  0  0  0  0
    5.1207   -3.6695    2.2272 C   0  0  0  0  0
    6.5306   -1.7561    1.7935 C   0  0  0  0  0
    0.5756    6.7516    0.4873 C   0  0  0  0  0
    0.6908    6.6274   -0.9102 C   0  0  0  0  0
    0.5569    5.4574    0.9468 C   0  0  0  0  0
    4.2864   -1.8299    0.9017 C   0  0  0  0  0
    0.7160    0.4953   -0.1734 C   0  0  0  0  0
    0.6777    3.2847   -0.1651 C   0  0  0  0  0
    4.0945   -3.0809    1.4881 C   0  0  0  0  0
    5.5044   -1.1675    1.0544 C   0  0  0  0  0
    3.2138   -1.2145    0.1284 C   0  0  0  0  0
   -0.5364   -1.6218    0.4113 C   0  0  0  0  0
    0.7369   -1.0181   -0.1778 C   0  0  0  0  0
    0.7417    5.3546   -1.3122 N   0  0  0  0  0
    0.6583    4.6674   -0.1604 N   0  0  0  0  0
    1.9045   -1.5285    0.5040 N   0  0  0  0  0
    3.4787   -0.4673   -0.8272 O   0  0  0  0  0
    2.9120   -3.7454    1.3526 O   0  0  0  0  0
    5.7129    0.0559    0.4907 O   0  0  0  0  0
  1  6  1  0  0  0
  2 12  1  0  0  0
  3  5  1  0  0  0
  4 13  1  0  0  0
  7 15  1  0  0  0
  8  9  1  0  0  0
 10 20  1  0  0  0
 11 14  1  0  0  0
 11 16  1  0  0  0
 13 20  1  0  0  0
 14 23  1  0  0  0
 15 24  1  0  0  0
 16 21  1  0  0  0
 17 18  1  0  0  0
 18 12  1  0  0  0
 18 21  1  0  0  0
 20 19  1  0  0  0
  1  7  2  0  0  0
  2  4  2  0  0  0
  3 12  2  0  0  0
  5 13  2  0  0  0
  6 14  2  0  0  0
  8 10  2  0  0  0
  9 19  2  0  0  0
 11 15  2  0  0  0
 16 22  2  0  0  0
M  END
> <rmsd>
0.344249815

$$$$
ZINC92124805


 24 26  0  0  0  0  0  0  0  0999 V2000
   -1.0673    0.1069    3.8039 C   0  0  0  0  0
   -1.2658    1.4875    3.7843 C   0  0  0  0  0
    6.5709   -3.0819    2.0868 C   0  0  0  0  0
   -0.3800   -0.5138    2.7607 C   0  0  0  0  0
   -0.7769    2.2473    2.7215 C   0  0  0  0  0
    5.3652   -3.7713    1.9583 C   0  0  0  0  0
    6.6778   -1.7711    1.6219 C   0  0  0  0  0
    0.5047    3.7541   -1.0767 C   0  0  0  0  0
    1.7671    3.2659   -0.6896 C   0  0  0  0  0
   -0.3736    3.1712   -0.1961 C   0  0  0  0  0
    4.3733   -1.8394    0.8997 C   0  0  0  0  0
    0.1087    0.2461    1.6980 C   0  0  0  0  0
   -0.0897    1.6266    1.6784 C   0  0  0  0  0
    4.2665   -3.1501    1.3648 C   0  0  0  0  0
    5.5790   -1.1499    1.0282 C   0  0  0  0  0
    3.2246   -1.1898    0.2784 C   0  0  0  0  0
   -0.0145   -1.4978   -0.1285 C   0  0  0  0  0
    0.8499   -0.4580    0.5820 C   0  0  0  0  0
    1.7010    2.4367    0.3556 N   0  0  0  0  0
    0.3865    2.3996    0.6328 N   0  0  0  0  0
    2.0747   -1.0569    1.0618 N   0  0  0  0  0
    3.2851   -0.8014   -0.8995 O   0  0  0  0  0
    3.0975   -3.8421    1.2502 O   0  0  0  0  0
    5.7052    0.1317    0.5815 O   0  0  0  0  0
  1  2  1  0  0  0
  3  6  1  0  0  0
  4 12  1  0  0  0
  5 13  1  0  0  0
  7 15  1  0  0  0
  8  9  1  0  0  0
 10 20  1  0  0  0
 11 14  1  0  0  0
 11 16  1  0  0  0
 13 20  1  0  0  0
 14 23  1  0  0  0
 15 24  1  0  0  0
 16 21  1  0  0  0
 17 18  1  0  0  0
 18 12  1  0  0  0
 18 21  1  0  0  0
 20 19  1  0  0  0
  1  4  2  0  0  0
  2  5  2  0  0  0
  3  7  2  0  0  0
  6 14  2  0  0  0
  8 10  2  0  0  0
  9 19  2  0  0  0
 11 15  2  0  0  0
 12 13  2  0  0  0
 16 22  2  0  0  0
M  END
> <rmsd>
0.465270251

$$$$
ZINC92124805


 24 26  0  0  0  0  0  0  0  0999 V2000
    0.7574    3.1223    1.5556 C   0  0  0  0  0
    0.8667    3.9152    0.4132 C   0  0  0  0  0
    6.3280   -2.9203    2.4397 C   0  0  0  0  0
    0.7557    1.7320    1.4421 C   0  0  0  0  0
    0.9742    3.3178   -0.8426 C   0  0  0  0  0
    5.1304   -3.6059    2.2369 C   0  0  0  0  0
    6.5106   -1.6551    1.8815 C   0  0  0  0  0
    1.8089    0.7807   -4.1896 C   0  0  0  0  0
    0.5582    0.2077   -3.8909 C   0  0  0  0  0
    2.1212    1.5226   -3.0767 C   0  0  0  0  0
    4.2979   -1.7613    0.9172 C   0  0  0  0  0
    0.8632    1.1347    0.1863 C   0  0  0  0  0
    0.9724    1.9275   -0.9562 C   0  0  0  0  0
    4.1153   -3.0264    1.4757 C   0  0  0  0  0
    5.4956   -1.0756    1.1202 C   0  0  0  0  0
    3.2369   -1.1554    0.1207 C   0  0  0  0  0
   -0.4303   -0.9891    0.6432 C   0  0  0  0  0
    0.8580   -0.3762    0.0976 C   0  0  0  0  0
    0.1070    0.5555   -2.6828 N   0  0  0  0  0
    1.0795    1.3551   -2.2125 N   0  0  0  0  0
    2.0111   -0.9444    0.7582 N   0  0  0  0  0
    3.4333   -0.8695   -1.0716 O   0  0  0  0  0
    2.9526   -3.7137    1.2909 O   0  0  0  0  0
    5.6947    0.1618    0.5845 O   0  0  0  0  0
  1  2  1  0  0  0
  3  6  1  0  0  0
  4 12  1  0  0  0
  5 13  1  0  0  0
  7 15  1  0  0  0
  8  9  1  0  0  0
 10 20  1  0  0  0
 11 14  1  0  0  0
 11 16  1  0  0  0
 13 20  1  0  0  0
 14 23  1  0  0  0
 15 24  1  0  0  0
 16 21  1  0  0  0
 17 18  1  0  0  0
 18 12  1  0  0  0
 18 21  1  0  0  0
 20 19  1  0  0  0
  1  4  2  0  0  0
  2  5  2  0  0  0
  3  7  2  0  0  0
  6 14  2  0  0  0
  8 10  2  0  0  0
  9 19  2  0  0  0
 11 15  2  0  0  0
 12 13  2  0  0  0
 16 22  2  0  0  0
M  END
> <rmsd>
0.290991902

$$$$
ZINC92124805


 24 26  0  0  0  0  0  0  0  0999 V2000
   -1.0582    0.1113    3.8112 C   0  0  0  0  0
   -1.2547    1.4921    3.7928 C   0  0  0  0  0
    6.5734   -3.0875    2.0828 C   0  0  0  0  0
   -0.3730   -0.5097    2.7668 C   0  0  0  0  0
   -0.7660    2.2520    2.7300 C   0  0  0  0  0
    5.3665   -3.7751    1.9553 C   0  0  0  0  0
    6.6816   -1.7765    1.6186 C   0  0  0  0  0
    1.7121    3.3788   -0.8043 C   0  0  0  0  0
    0.3601    3.7232   -0.9921 C   0  0  0  0  0
    1.7018    2.5184    0.2662 C   0  0  0  0  0
    4.3761   -1.8409    0.8991 C   0  0  0  0  0
    0.1155    0.2501    1.7041 C   0  0  0  0  0
   -0.0809    1.6310    1.6856 C   0  0  0  0  0
    4.2679   -3.1519    1.3635 C   0  0  0  0  0
    5.5829   -1.1533    1.0267 C   0  0  0  0  0
    3.2276   -1.1893    0.2797 C   0  0  0  0  0
   -0.0124   -1.4923   -0.1235 C   0  0  0  0  0
    0.8543   -0.4543    0.5866 C   0  0  0  0  0
   -0.4502    3.1299   -0.1115 N   0  0  0  0  0
    0.3951    2.4040    0.6399 N   0  0  0  0  0
    2.0788   -1.0552    1.0646 N   0  0  0  0  0
    3.2873   -0.8002   -0.8980 O   0  0  0  0  0
    3.0978   -3.8420    1.2499 O   0  0  0  0  0
    5.7104    0.1284    0.5807 O   0  0  0  0  0
  1  2  1  0  0  0
  3  6  1  0  0  0
  4 12  1  0  0  0
  5 13  1  0  0  0
  7 15  1  0  0  0
  8  9  1  0  0  0
 10 20  1  0  0  0
 11 14  1  0  0  0
 11 16  1  0  0  0
 13 20  1  0  0  0
 14 23  1  0  0  0
 15 24  1  0  0  0
 16 21  1  0  0  0
 17 18  1  0  0  0
 18 12  1  0  0  0
 18 21  1  0  0  0
 20 19  1  0  0  0
  1  4  2  0  0  0
  2  5  2  0  0  0
  3  7  2  0  0  0
  6 14  2  0  0  0
  8 10  2  0  0  0
  9 19  2  0  0  0
 11 15  2  0  0  0
 12 13  2  0  0  0
 16 22  2  0  0  0
M  END
> <rmsd>
0.468524277

$$$$
ZINC92124805


 24 26  0  0  0  0  0  0  0  0999 V2000
    1.3949    3.1245    1.4465 C   0  0  0  0  0
    0.8958    3.9133    0.4099 C   0  0  0  0  0
    6.3288   -2.9197    2.4392 C   0  0  0  0  0
    1.3776    1.7342    1.3353 C   0  0  0  0  0
    0.3793    3.3117   -0.7377 C   0  0  0  0  0
    5.1315   -3.6060    2.2363 C   0  0  0  0  0
    6.5105   -1.6543    1.8812 C   0  0  0  0  0
   -1.5038    0.7542   -3.6105 C   0  0  0  0  0
   -0.2184    0.1981   -3.7532 C   0  0  0  0  0
   -1.4309    1.4956   -2.4565 C   0  0  0  0  0
    4.2978   -1.7615    0.9173 C   0  0  0  0  0
    0.8611    1.1326    0.1877 C   0  0  0  0  0
    0.3621    1.9214   -0.8489 C   0  0  0  0  0
    4.1160   -3.0269    1.4755 C   0  0  0  0  0
    5.4951   -1.0752    1.1202 C   0  0  0  0  0
    3.2363   -1.1561    0.1211 C   0  0  0  0  0
   -0.4310   -0.9921    0.6443 C   0  0  0  0  0
    0.8568   -0.3783    0.0987 C   0  0  0  0  0
    0.6104    0.5558   -2.7688 N   0  0  0  0  0
   -0.1558    1.3447   -1.9965 N   0  0  0  0  0
    2.0104   -0.9459    0.7589 N   0  0  0  0  0
    3.4322   -0.8697   -1.0712 O   0  0  0  0  0
    2.9537   -3.7148    1.2908 O   0  0  0  0  0
    5.6933    0.1625    0.5848 O   0  0  0  0  0
  1  2  1  0  0  0
  3  6  1  0  0  0
  4 12  1  0  0  0
  5 13  1  0  0  0
  7 15  1  0  0  0
  8  9  1  0  0  0
 10 20  1  0  0  0
 11 14  1  0  0  0
 11 16  1  0  0  0
 13 20  1  0  0  0
 14 23  1  0  0  0
 15 24  1  0  0  0
 16 21  1  0  0  0
 17 18  1  0  0  0
 18 12  1  0  0  0
 18 21  1  0  0  0
 20 19  1  0  0  0
  1  4  2  0  0  0
  2  5  2  0  0  0
  3  7  2  0  0  0
  6 14  2  0  0  0
  8 10  2  0  0  0
  9 19  2  0  0  0
 11 15  2  0  0  0
 12 13  2  0  0  0
 16 22  2  0  0  0
M  END
> <rmsd>
0.293918848

$$$$
ZINC92128073


 23 24  0  0  0  0  0  0  0  0999 V2000
    6.3360   -2.9362    2.4175 C   0  0  0  0  0
    0.5320    3.1441    1.4548 C   0  0  0  0  0
    5.1341   -3.6159    2.2201 C   0  0  0  0  0
    6.5196   -1.6689    1.8646 C   0  0  0  0  0
    0.5244    1.7544    1.4110 C   0  0  0  0  0
    0.8672    3.8682    0.3161 C   0  0  0  0  0
    4.2993   -1.7610    0.9165 C   0  0  0  0  0
    4.1157   -3.0283    1.4695 C   0  0  0  0  0
    5.5012   -1.0812    1.1140 C   0  0  0  0  0
    0.8569    1.1414    0.2138 C   0  0  0  0  0
    1.1845    3.1606   -0.8321 C   0  0  0  0  0
    3.2348   -1.1465    0.1310 C   0  0  0  0  0
    0.8590   -0.3576    0.1300 C   0  0  0  0  0
    1.8350    3.0775   -3.1181 C   0  0  0  0  0
    2.2091    3.9921   -4.2610 C   0  0  0  0  0
    1.1880    1.8110   -0.9129 N   0  0  0  0  0
    2.0147   -0.9340    0.7789 N   0  0  0  0  0
    3.4235   -0.8550   -1.0610 O   0  0  0  0  0
    2.9489   -3.7099    1.2899 O   0  0  0  0  0
    5.7015    0.1583    0.5835 O   0  0  0  0  0
    1.5178    3.8517   -1.9675 O   0  0  0  0  0
    1.1818    4.8332   -4.5343 F   0  0  0  0  0
    3.2694    4.7601   -3.9102 F   0  0  0  0  0
  1  3  1  0  0  0
  2  5  1  0  0  0
  4  9  1  0  0  0
  6 11  1  0  0  0
  7  8  1  0  0  0
  7 12  1  0  0  0
  8 19  1  0  0  0
  9 20  1  0  0  0
 10 16  1  0  0  0
 11 21  1  0  0  0
 12 17  1  0  0  0
 13 10  1  0  0  0
 13 17  1  0  0  0
 14 15  1  0  0  0
 14 21  1  0  0  0
 15 22  1  0  0  0
 15 23  1  0  0  0
  1  4  2  0  0  0
  2  6  2  0  0  0
  3  8  2  0  0  0
  5 10  2  0  0  0
  7  9  2  0  0  0
 11 16  2  0  0  0
 12 18  2  0  0  0
M  END
> <rmsd>
0.278248101

$$$$
ZINC92126890


 23 24  0  0  0  0  0  0  0  0999 V2000
    6.3353   -2.9311    2.4254 C   0  0  0  0  0
    1.1754    3.2808   -0.8304 C   0  0  0  0  0
    1.1843    1.8931   -0.9161 C   0  0  0  0  0
    5.1354   -3.6136    2.2259 C   0  0  0  0  0
    6.5178   -1.6644    1.8706 C   0  0  0  0  0
    0.8316    3.8535    0.3835 C   0  0  0  0  0
    4.3003   -1.7628    0.9166 C   0  0  0  0  0
    0.8539    1.1311    0.1991 C   0  0  0  0  0
    4.1178   -3.0295    1.4714 C   0  0  0  0  0
    5.5002   -1.0802    1.1161 C   0  0  0  0  0
    0.5246    1.8001    1.3670 C   0  0  0  0  0
    3.2367   -1.1520    0.1271 C   0  0  0  0  0
    0.8592   -0.3681    0.1181 C   0  0  0  0  0
   -0.1356    1.8337    3.6514 C   0  0  0  0  0
   -0.4423    0.8938    4.7938 C   0  0  0  0  0
    0.5048    3.1463    1.4884 N   0  0  0  0  0
    2.0143   -0.9409    0.7712 N   0  0  0  0  0
    3.4280   -0.8624   -1.0650 O   0  0  0  0  0
    2.9529   -3.7138    1.2899 O   0  0  0  0  0
    5.6994    0.1587    0.5838 O   0  0  0  0  0
    0.1914    1.0842    2.4876 O   0  0  0  0  0
   -1.4738    0.0809    4.4584 F   0  0  0  0  0
    0.6278    0.0986    5.0380 F   0  0  0  0  0
  1  4  1  0  0  0
  2  6  1  0  0  0
  3  8  1  0  0  0
  5 10  1  0  0  0
  7  9  1  0  0  0
  7 12  1  0  0  0
  9 19  1  0  0  0
 10 20  1  0  0  0
 11 16  1  0  0  0
 11 21  1  0  0  0
 12 17  1  0  0  0
 13  8  1  0  0  0
 13 17  1  0  0  0
 14 15  1  0  0  0
 14 21  1  0  0  0
 15 22  1  0  0  0
 15 23  1  0  0  0
  1  5  2  0  0  0
  2  3  2  0  0  0
  4  9  2  0  0  0
  6 16  2  0  0  0
  7 10  2  0  0  0
  8 11  2  0  0  0
 12 18  2  0  0  0
M  END
> <rmsd>
0.283210397

$$$$
ZINC92126890


 23 24  0  0  0  0  0  0  0  0999 V2000
    6.3382   -2.9332    2.4210 C   0  0  0  0  0
    0.5178    3.1532    1.4657 C   0  0  0  0  0
    0.5190    1.7644    1.3998 C   0  0  0  0  0
    5.1380   -3.6156    2.2225 C   0  0  0  0  0
    6.5196   -1.6658    1.8674 C   0  0  0  0  0
    0.8551    3.8572    0.3209 C   0  0  0  0  0
    4.3007   -1.7634    0.9167 C   0  0  0  0  0
    0.8528    1.1308    0.2079 C   0  0  0  0  0
    4.1193   -3.0308    1.4703 C   0  0  0  0  0
    5.5009   -1.0809    1.1151 C   0  0  0  0  0
    1.1749    1.9253   -0.8807 C   0  0  0  0  0
    3.2358   -1.1519    0.1295 C   0  0  0  0  0
    0.8582   -0.3683    0.1252 C   0  0  0  0  0
    1.8304    2.2123   -3.1487 C   0  0  0  0  0
    2.1416    1.4046   -4.3869 C   0  0  0  0  0
    1.1848    3.2769   -0.8547 N   0  0  0  0  0
    2.0144   -0.9416    0.7758 N   0  0  0  0  0
    3.4252   -0.8608   -1.0625 O   0  0  0  0  0
    2.9542   -3.7151    1.2899 O   0  0  0  0  0
    5.6990    0.1587    0.5840 O   0  0  0  0  0
    1.5110    1.3383   -2.0728 O   0  0  0  0  0
    3.1796    0.5675   -4.1432 F   0  0  0  0  0
    1.0768    0.6329   -4.7149 F   0  0  0  0  0
  1  4  1  0  0  0
  2  6  1  0  0  0
  3  8  1  0  0  0
  5 10  1  0  0  0
  7  9  1  0  0  0
  7 12  1  0  0  0
  9 19  1  0  0  0
 10 20  1  0  0  0
 11 16  1  0  0  0
 11 21  1  0  0  0
 12 17  1  0  0  0
 13  8  1  0  0  0
 13 17  1  0  0  0
 14 15  1  0  0  0
 14 21  1  0  0  0
 15 22  1  0  0  0
 15 23  1  0  0  0
  1  5  2  0  0  0
  2  3  2  0  0  0
  4  9  2  0  0  0
  6 16  2  0  0  0
  7 10  2  0  0  0
  8 11  2  0  0  0
 12 18  2  0  0  0
M  END
> <rmsd>
0.283697367

$$$$
ZINC92123698


 24 26  0  0  0  0  0  0  0  0999 V2000
    6.3433   -2.9697    2.3697 C   0  0  0  0  0
    1.6218    4.3632   -2.4967 C   0  0  0  0  0
    1.1239    5.6038   -0.4842 C   0  0  0  0  0
    1.8163    5.5599   -3.1863 C   0  0  0  0  0
    1.3183    6.8005   -1.1738 C   0  0  0  0  0
    5.1302   -3.6326    2.1839 C   0  0  0  0  0
    6.5337   -1.6985    1.8277 C   0  0  0  0  0
    0.6104    1.9946    1.3087 C   0  0  0  0  0
    1.2756    4.3850   -1.1456 C   0  0  0  0  0
    4.2978   -1.7534    0.9139 C   0  0  0  0  0
    1.6645    6.7786   -2.5249 C   0  0  0  0  0
    4.1075   -3.0245    1.4560 C   0  0  0  0  0
    5.5110   -1.0904    1.0998 C   0  0  0  0  0
    0.8716    1.1669    0.2450 C   0  0  0  0  0
    1.0745    3.1474   -0.4324 C   0  0  0  0  0
    3.2088   -1.1058    0.1381 C   0  0  0  0  0
    1.8719    8.0580   -3.2625 C   0  0  0  0  0
    0.8625   -0.3015    0.1971 C   0  0  0  0  0
    1.1680    1.9114   -0.8678 N   0  0  0  0  0
    2.0249   -0.8995    0.8235 N   0  0  0  0  0
    3.4021   -0.8152   -1.0394 O   0  0  0  0  0
    0.7394    3.2812    0.8800 O   0  0  0  0  0
    2.9298   -3.6900    1.2874 O   0  0  0  0  0
    5.7179    0.1524    0.5797 O   0  0  0  0  0
  1  6  1  0  0  0
  2  9  1  0  0  0
  3  5  1  0  0  0
  4 11  1  0  0  0
  7 13  1  0  0  0
  8 22  1  0  0  0
  9 15  1  0  0  0
 10 12  1  0  0  0
 10 16  1  0  0  0
 12 23  1  0  0  0
 13 24  1  0  0  0
 14 19  1  0  0  0
 15 22  1  0  0  0
 16 20  1  0  0  0
 17 11  1  0  0  0
 18 14  1  0  0  0
 18 20  1  0  0  0
  1  7  2  0  0  0
  2  4  2  0  0  0
  3  9  2  0  0  0
  5 11  2  0  0  0
  6 12  2  0  0  0
  8 14  2  0  0  0
 10 13  2  0  0  0
 15 19  2  0  0  0
 16 21  2  0  0  0
M  END
> <rmsd>
0.262882203

$$$$
ZINC92123698


 24 26  0  0  0  0  0  0  0  0999 V2000
    6.3237   -2.9542    2.4022 C   0  0  0  0  0
    0.1346    4.2104    3.0993 C   0  0  0  0  0
    0.6689    5.5572    1.1659 C   0  0  0  0  0
   -0.0528    5.3683    3.8541 C   0  0  0  0  0
    0.4815    6.7151    1.9207 C   0  0  0  0  0
    5.1123   -3.6183    2.2094 C   0  0  0  0  0
    6.5201   -1.6876    1.8516 C   0  0  0  0  0
    1.1580    2.0498   -0.8249 C   0  0  0  0  0
    0.4954    4.3048    1.7551 C   0  0  0  0  0
    4.2937   -1.7495    0.9154 C   0  0  0  0  0
    0.1207    6.6206    3.2648 C   0  0  0  0  0
    4.0974   -3.0159    1.4660 C   0  0  0  0  0
    5.5051   -1.0853    1.1082 C   0  0  0  0  0
    0.8756    1.1662    0.1872 C   0  0  0  0  0
    0.6893    3.1074    0.9745 C   0  0  0  0  0
    3.2130   -1.1080    0.1231 C   0  0  0  0  0
   -0.0792    7.8585    4.0721 C   0  0  0  0  0
    0.8665   -0.3025    0.1513 C   0  0  0  0  0
    0.5762    1.8499    1.3377 N   0  0  0  0  0
    2.0222   -0.8956    0.7945 N   0  0  0  0  0
    3.4185   -0.8272   -1.0549 O   0  0  0  0  0
    1.0400    3.3114   -0.3248 O   0  0  0  0  0
    2.9212   -3.6825    1.2909 O   0  0  0  0  0
    5.7179    0.1531    0.5800 O   0  0  0  0  0
  1  6  1  0  0  0
  2  9  1  0  0  0
  3  5  1  0  0  0
  4 11  1  0  0  0
  7 13  1  0  0  0
  8 22  1  0  0  0
  9 15  1  0  0  0
 10 12  1  0  0  0
 10 16  1  0  0  0
 12 23  1  0  0  0
 13 24  1  0  0  0
 14 19  1  0  0  0
 15 22  1  0  0  0
 16 20  1  0  0  0
 17 11  1  0  0  0
 18 14  1  0  0  0
 18 20  1  0  0  0
  1  7  2  0  0  0
  2  4  2  0  0  0
  3  9  2  0  0  0
  5 11  2  0  0  0
  6 12  2  0  0  0
  8 14  2  0  0  0
 10 13  2  0  0  0
 15 19  2  0  0  0
 16 21  2  0  0  0
M  END
> <rmsd>
0.25859192

$$$$
ZINC92123205


 24 26  0  0  0  0  0  0  0  0999 V2000
   -0.1251    1.8280    3.7451 C   0  0  0  0  0
   -0.1065    3.2171    3.7302 C   0  0  0  0  0
    6.3477   -2.9418    2.4054 C   0  0  0  0  0
    0.1911    1.1241    2.5866 C   0  0  0  0  0
    0.2281    3.8990    2.5577 C   0  0  0  0  0
    5.1463   -3.6232    2.2103 C   0  0  0  0  0
    6.5266   -1.6722    1.8558 C   0  0  0  0  0
    1.1783    1.8335   -0.9210 C   0  0  0  0  0
    0.5276    1.8103    1.4073 C   0  0  0  0  0
    4.3029   -1.7656    0.9159 C   0  0  0  0  0
    0.8501    1.1270    0.2271 C   0  0  0  0  0
    0.5487    3.2206    1.3850 C   0  0  0  0  0
    4.1239   -3.0351    1.4656 C   0  0  0  0  0
    5.5043   -1.0842    1.1112 C   0  0  0  0  0
    1.1718    3.2116   -0.8459 C   0  0  0  0  0
    3.2143   -1.1394    0.1223 C   0  0  0  0  0
    1.4689    5.3562   -1.8298 C   0  0  0  0  0
    0.8565   -0.3674    0.1472 C   0  0  0  0  0
    0.8667    3.9090    0.2723 N   0  0  0  0  0
    2.0110   -0.9401    0.7873 N   0  0  0  0  0
    3.4176   -0.8550   -1.0552 O   0  0  0  0  0
    2.9578   -3.7184    1.2882 O   0  0  0  0  0
    5.6999    0.1574    0.5839 O   0  0  0  0  0
    1.4909    3.9399   -1.9618 O   0  0  0  0  0
  1  2  1  0  0  0
  3  6  1  0  0  0
  4  9  1  0  0  0
  5 12  1  0  0  0
  7 14  1  0  0  0
  8 15  1  0  0  0
  9 11  1  0  0  0
 10 13  1  0  0  0
 10 16  1  0  0  0
 12 19  1  0  0  0
 13 22  1  0  0  0
 14 23  1  0  0  0
 15 24  1  0  0  0
 16 20  1  0  0  0
 17 24  1  0  0  0
 18 11  1  0  0  0
 18 20  1  0  0  0
  1  4  2  0  0  0
  2  5  2  0  0  0
  3  7  2  0  0  0
  6 13  2  0  0  0
  8 11  2  0  0  0
  9 12  2  0  0  0
 10 14  2  0  0  0
 15 19  2  0  0  0
 16 21  2  0  0  0
M  END
> <rmsd>
0.283576906

$$$$
ZINC92126257


 24 26  0  0  0  0  0  0  0  0999 V2000
    6.3387   -3.0072    2.3801 C   0  0  0  0  0
    0.8051    1.1976   -1.3751 C   0  0  0  0  0
    0.6080    1.1876    1.0328 C   0  0  0  0  0
    0.7859    2.5922   -1.3709 C   0  0  0  0  0
    0.5888    2.5824    1.0370 C   0  0  0  0  0
    5.1208   -3.6695    2.2275 C   0  0  0  0  0
    6.5307   -1.7561    1.7938 C   0  0  0  0  0
    0.6740    6.7466   -0.6963 C   0  0  0  0  0
    0.7355    5.4892   -1.2422 C   0  0  0  0  0
    4.2865   -1.8299    0.9020 C   0  0  0  0  0
    0.7161    0.4952   -0.1731 C   0  0  0  0  0
    0.6777    3.2847   -0.1649 C   0  0  0  0  0
    4.0946   -3.0810    1.4884 C   0  0  0  0  0
    5.5045   -1.1675    1.0547 C   0  0  0  0  0
    3.2139   -1.2145    0.1286 C   0  0  0  0  0
   -0.5364   -1.6218    0.4116 C   0  0  0  0  0
    0.7370   -1.0181   -0.1776 C   0  0  0  0  0
    0.5634    6.6524    0.6633 N   0  0  0  0  0
    0.5549    5.3631    0.9838 N   0  0  0  0  0
    0.6584    4.6673   -0.1601 N   0  0  0  0  0
    1.9046   -1.5286    0.5043 N   0  0  0  0  0
    3.4788   -0.4673   -0.8269 O   0  0  0  0  0
    2.9121   -3.7455    1.3528 O   0  0  0  0  0
    5.7130    0.0559    0.4909 O   0  0  0  0  0
  1  6  1  0  0  0
  2 11  1  0  0  0
  3  5  1  0  0  0
  4 12  1  0  0  0
  7 14  1  0  0  0
  8 18  1  0  0  0
  9 20  1  0  0  0
 10 13  1  0  0  0
 10 15  1  0  0  0
 12 20  1  0  0  0
 13 23  1  0  0  0
 14 24  1  0  0  0
 15 21  1  0  0  0
 16 17  1  0  0  0
 17 11  1  0  0  0
 17 21  1  0  0  0
 20 19  1  0  0  0
  1  7  2  0  0  0
  2  4  2  0  0  0
  3 11  2  0  0  0
  5 12  2  0  0  0
  6 13  2  0  0  0
  8  9  2  0  0  0
 10 14  2  0  0  0
 15 22  2  0  0  0
 18 19  2  0  0  0
M  END
> <rmsd>
0.344249845

$$$$
ZINC92126257


 24 26  0  0  0  0  0  0  0  0999 V2000
    6.3388   -3.0071    2.3800 C   0  0  0  0  0
    0.8052    1.1975   -1.3755 C   0  0  0  0  0
    0.6081    1.1877    1.0324 C   0  0  0  0  0
    0.7860    2.5921   -1.3715 C   0  0  0  0  0
    0.5889    2.5825    1.0364 C   0  0  0  0  0
    5.1208   -3.6694    2.2275 C   0  0  0  0  0
    6.5307   -1.7561    1.7936 C   0  0  0  0  0
    0.5845    6.7417    0.3894 C   0  0  0  0  0
    0.5584    5.4792    0.9268 C   0  0  0  0  0
    4.2865   -1.8299    0.9018 C   0  0  0  0  0
    0.7162    0.4952   -0.1735 C   0  0  0  0  0
    0.6779    3.2847   -0.1655 C   0  0  0  0  0
    4.0946   -3.0809    1.4883 C   0  0  0  0  0
    5.5046   -1.1676    1.0544 C   0  0  0  0  0
    3.2139   -1.2146    0.1284 C   0  0  0  0  0
   -0.5363   -1.6217    0.4114 C   0  0  0  0  0
    0.7370   -1.0181   -0.1778 C   0  0  0  0  0
    0.6977    6.6599   -0.9708 N   0  0  0  0  0
    0.7423    5.3735   -1.3000 N   0  0  0  0  0
    0.6586    4.6673   -0.1609 N   0  0  0  0  0
    1.9047   -1.5286    0.5041 N   0  0  0  0  0
    3.4789   -0.4674   -0.8272 O   0  0  0  0  0
    2.9121   -3.7454    1.3529 O   0  0  0  0  0
    5.7131    0.0558    0.4906 O   0  0  0  0  0
  1  6  1  0  0  0
  2 11  1  0  0  0
  3  5  1  0  0  0
  4 12  1  0  0  0
  7 14  1  0  0  0
  8 18  1  0  0  0
  9 20  1  0  0  0
 10 13  1  0  0  0
 10 15  1  0  0  0
 12 20  1  0  0  0
 13 23  1  0  0  0
 14 24  1  0  0  0
 15 21  1  0  0  0
 16 17  1  0  0  0
 17 11  1  0  0  0
 17 21  1  0  0  0
 20 19  1  0  0  0
  1  7  2  0  0  0
  2  4  2  0  0  0
  3 11  2  0  0  0
  5 12  2  0  0  0
  6 13  2  0  0  0
  8  9  2  0  0  0
 10 14  2  0  0  0
 15 22  2  0  0  0
 18 19  2  0  0  0
M  END
> <rmsd>
0.344549865

$$$$
ZINC92125494


 24 26  0  0  0  0  0  0  0  0999 V2000
   -0.5905    6.4734    1.8669 C   0  0  0  0  0
    0.1945    6.7793    2.9785 C   0  0  0  0  0
    6.3295   -2.9650    2.3849 C   0  0  0  0  0
   -0.4112    5.2622    1.1985 C   0  0  0  0  0
    1.1588    5.8743    3.4218 C   0  0  0  0  0
    5.1156   -3.6255    2.1961 C   0  0  0  0  0
    6.5258   -1.6965    1.8388 C   0  0  0  0  0
    0.5531    4.3570    1.6418 C   0  0  0  0  0
    4.2941   -1.7490    0.9149 C   0  0  0  0  0
    1.3381    4.6631    2.7535 C   0  0  0  0  0
    4.0978   -3.0175    1.4611 C   0  0  0  0  0
    5.5081   -1.0885    1.1038 C   0  0  0  0  0
    0.7190    3.1094    0.9320 C   0  0  0  0  0
    0.8782    1.1754    0.2150 C   0  0  0  0  0
    3.2104   -1.1016    0.1315 C   0  0  0  0  0
    2.3814    3.7183    3.2580 C   0  0  0  0  0
    0.8660   -0.2907    0.1763 C   0  0  0  0  0
    0.5924    1.8756    1.3508 N   0  0  0  0  0
    1.1697    1.9102   -0.8625 N   0  0  0  0  0
    2.0246   -0.8898    0.8109 N   0  0  0  0  0
    3.4100   -0.8162   -1.0464 O   0  0  0  0  0
    1.0620    3.2199   -0.3782 O   0  0  0  0  0
    2.9191   -3.6805    1.2896 O   0  0  0  0  0
    5.7207    0.1516    0.5798 O   0  0  0  0  0
  1  2  1  0  0  0
  3  6  1  0  0  0
  4  8  1  0  0  0
  5 10  1  0  0  0
  7 12  1  0  0  0
  8 13  1  0  0  0
  9 11  1  0  0  0
  9 15  1  0  0  0
 11 23  1  0  0  0
 12 24  1  0  0  0
 13 22  1  0  0  0
 14 18  1  0  0  0
 15 20  1  0  0  0
 16 10  1  0  0  0
 17 14  1  0  0  0
 17 20  1  0  0  0
 19 22  1  0  0  0
  1  4  2  0  0  0
  2  5  2  0  0  0
  3  7  2  0  0  0
  6 11  2  0  0  0
  8 10  2  0  0  0
  9 12  2  0  0  0
 13 18  2  0  0  0
 14 19  2  0  0  0
 15 21  2  0  0  0
M  END
> <rmsd>
0.260488242

$$$$
ZINC92125494


 24 26  0  0  0  0  0  0  0  0999 V2000
    2.4320    6.5297   -1.1441 C   0  0  0  0  0
    1.6510    6.9080   -2.2362 C   0  0  0  0  0
    6.3324   -2.9668    2.3804 C   0  0  0  0  0
    2.2334    5.2873   -0.5416 C   0  0  0  0  0
    0.6714    6.0441   -2.7257 C   0  0  0  0  0
    5.1183   -3.6272    2.1925 C   0  0  0  0  0
    6.5278   -1.6977    1.8354 C   0  0  0  0  0
    1.2537    4.4235   -1.0312 C   0  0  0  0  0
    4.2947   -1.7494    0.9146 C   0  0  0  0  0
    0.4728    4.8018   -2.1232 C   0  0  0  0  0
    4.0994   -3.0185    1.4596 C   0  0  0  0  0
    5.5089   -1.0890    1.1025 C   0  0  0  0  0
    1.0679    3.1423   -0.3892 C   0  0  0  0  0
    0.8775    1.1754    0.2230 C   0  0  0  0  0
    3.2099   -1.1012    0.1335 C   0  0  0  0  0
   -0.5866    3.9028   -2.6759 C   0  0  0  0  0
    0.8654   -0.2907    0.1826 C   0  0  0  0  0
    1.1737    1.9309   -0.8740 N   0  0  0  0  0
    0.5992    1.8557    1.3390 N   0  0  0  0  0
    2.0250   -0.8904    0.8149 N   0  0  0  0  0
    3.4077   -0.8144   -1.0443 O   0  0  0  0  0
    0.7281    3.1877    0.9257 O   0  0  0  0  0
    2.9206   -3.6815    1.2891 O   0  0  0  0  0
    5.7206    0.1518    0.5796 O   0  0  0  0  0
  1  2  1  0  0  0
  3  6  1  0  0  0
  4  8  1  0  0  0
  5 10  1  0  0  0
  7 12  1  0  0  0
  8 13  1  0  0  0
  9 11  1  0  0  0
  9 15  1  0  0  0
 11 23  1  0  0  0
 12 24  1  0  0  0
 13 22  1  0  0  0
 14 18  1  0  0  0
 15 20  1  0  0  0
 16 10  1  0  0  0
 17 14  1  0  0  0
 17 20  1  0  0  0
 19 22  1  0  0  0
  1  4  2  0  0  0
  2  5  2  0  0  0
  3  7  2  0  0  0
  6 11  2  0  0  0
  8 10  2  0  0  0
  9 12  2  0  0  0
 13 18  2  0  0  0
 14 19  2  0  0  0
 15 21  2  0  0  0
M  END
> <rmsd>
0.261463374

$$$$
ZINC92125494


 24 26  0  0  0  0  0  0  0  0999 V2000
    2.4840    6.7142    0.1785 C   0  0  0  0  0
    3.2623    6.8690   -0.9686 C   0  0  0  0  0
    6.3314   -2.9650    2.3817 C   0  0  0  0  0
    1.9029    5.4791    0.4656 C   0  0  0  0  0
    3.4594    5.7888   -1.8286 C   0  0  0  0  0
    5.1176   -3.6257    2.1935 C   0  0  0  0  0
    6.5268   -1.6961    1.8364 C   0  0  0  0  0
    2.0999    4.3988   -0.3945 C   0  0  0  0  0
    4.2943   -1.7486    0.9145 C   0  0  0  0  0
    2.8782    4.5536   -1.5416 C   0  0  0  0  0
    4.0989   -3.0176    1.4599 C   0  0  0  0  0
    5.5083   -1.0879    1.1028 C   0  0  0  0  0
    1.4869    3.1299   -0.0744 C   0  0  0  0  0
    0.8769    1.1753    0.2200 C   0  0  0  0  0
    3.2097   -1.1009    0.1325 C   0  0  0  0  0
    3.1120    3.4190   -2.4870 C   0  0  0  0  0
    0.8651   -0.2908    0.1802 C   0  0  0  0  0
    1.8783    1.9104   -0.3447 N   0  0  0  0  0
   -0.0942    1.8757    0.8134 N   0  0  0  0  0
    2.0245   -0.8900    0.8132 N   0  0  0  0  0
    3.4081   -0.8145   -1.0453 O   0  0  0  0  0
    0.3180    3.1995    0.6147 O   0  0  0  0  0
    2.9203   -3.6808    1.2890 O   0  0  0  0  0
    5.7200    0.1527    0.5795 O   0  0  0  0  0
  1  2  1  0  0  0
  3  6  1  0  0  0
  4  8  1  0  0  0
  5 10  1  0  0  0
  7 12  1  0  0  0
  8 13  1  0  0  0
  9 11  1  0  0  0
  9 15  1  0  0  0
 11 23  1  0  0  0
 12 24  1  0  0  0
 13 22  1  0  0  0
 14 18  1  0  0  0
 15 20  1  0  0  0
 16 10  1  0  0  0
 17 14  1  0  0  0
 17 20  1  0  0  0
 19 22  1  0  0  0
  1  4  2  0  0  0
  2  5  2  0  0  0
  3  7  2  0  0  0
  6 11  2  0  0  0
  8 10  2  0  0  0
  9 12  2  0  0  0
 13 18  2  0  0  0
 14 19  2  0  0  0
 15 21  2  0  0  0
M  END
> <rmsd>
0.262683898

$$$$
ZINC92124701


 24 27  0  0  0  0  0  0  0  0999 V2000
    1.9565    3.3021    0.5529 C   0  0  0  0  0
    1.3538    3.7538   -0.6183 C   0  0  0  0  0
    6.5331   -3.0960    2.0439 C   0  0  0  0  0
    1.7927    1.9759    0.9605 C   0  0  0  0  0
    0.5733    2.8844   -1.3754 C   0  0  0  0  0
    5.3137   -3.7629    1.9267 C   0  0  0  0  0
    6.6573   -1.7840    1.5869 C   0  0  0  0  0
    4.3425   -1.8057    0.8955 C   0  0  0  0  0
    1.0344    1.0753    0.1958 C   0  0  0  0  0
    0.4026    1.5618   -0.9590 C   0  0  0  0  0
    4.2183   -3.1179    1.3525 C   0  0  0  0  0
    5.5620   -1.1388    1.0127 C   0  0  0  0  0
    3.1761   -1.1187    0.2833 C   0  0  0  0  0
   -3.0108   -0.6019   -1.5720 C   0  0  0  0  0
   -2.2090   -0.2880   -0.2962 C   0  0  0  0  0
   -1.7606   -1.3178   -2.1141 C   0  0  0  0  0
    0.2368   -1.2079   -0.4910 C   0  0  0  0  0
    0.8400   -0.3604    0.6350 C   0  0  0  0  0
   -0.9087   -0.4445   -1.1443 C   0  0  0  0  0
    2.0622   -0.9844    1.0948 N   0  0  0  0  0
    3.2490   -0.7351   -0.8812 O   0  0  0  0  0
   -0.4039    0.7748   -1.7483 O   0  0  0  0  0
    3.0358   -3.7879    1.2487 O   0  0  0  0  0
    5.7051    0.1436    0.5736 O   0  0  0  0  0
  1  2  1  0  0  0
  3  6  1  0  0  0
  4  9  1  0  0  0
  5 10  1  0  0  0
  7 12  1  0  0  0
  8 11  1  0  0  0
  8 13  1  0  0  0
 10 22  1  0  0  0
 11 23  1  0  0  0
 12 24  1  0  0  0
 13 20  1  0  0  0
 14 15  1  0  0  0
 14 16  1  0  0  0
 15 19  1  0  0  0
 16 19  1  0  0  0
 17 18  1  0  0  0
 17 19  1  0  0  0
 18  9  1  0  0  0
 18 20  1  0  0  0
 19 22  1  0  0  0
  1  4  2  0  0  0
  2  5  2  0  0  0
  3  7  2  0  0  0
  6 11  2  0  0  0
  8 12  2  0  0  0
  9 10  2  0  0  0
 13 21  2  0  0  0
M  END
> <rmsd>
0.424667239

$$$$
ZINC92120916


 24 26  0  0  0  0  0  0  0  0999 V2000
   -3.0300    2.0179    3.8823 C   0  0  0  0  0
   -2.2558    3.1616    3.6737 C   0  0  0  0  0
    6.3713   -2.8952    2.4404 C   0  0  0  0  0
   -2.7196    0.8105    3.2440 C   0  0  0  0  0
   -1.1461    3.1417    2.8223 C   0  0  0  0  0
    5.1929   -3.6124    2.2346 C   0  0  0  0  0
    6.5203   -1.6243    1.8851 C   0  0  0  0  0
    4.3122   -1.7879    0.9182 C   0  0  0  0  0
   -1.6083    0.7725    2.3850 C   0  0  0  0  0
   -0.8560    1.9285    2.1974 C   0  0  0  0  0
    4.1633   -3.0588    1.4735 C   0  0  0  0  0
    5.4907   -1.0706    1.1239 C   0  0  0  0  0
   -0.0547    0.2334    1.0229 C   0  0  0  0  0
    3.2161   -1.1984    0.1069 C   0  0  0  0  0
    0.6804    3.3392   -0.2821 C   0  0  0  0  0
    0.1331   -1.6257   -0.6801 C   0  0  0  0  0
    1.1789    2.4086    0.8101 C   0  0  0  0  0
    0.8366   -0.4958    0.0975 C   0  0  0  0  0
   -1.0954   -0.2701    1.6477 N   0  0  0  0  0
    0.1309    1.5545    1.3217 N   0  0  0  0  0
    2.0149   -1.0379    0.7645 N   0  0  0  0  0
    3.4259   -0.9152   -1.0696 O   0  0  0  0  0
    3.0198   -3.7768    1.2860 O   0  0  0  0  0
    5.6570    0.1729    0.5912 O   0  0  0  0  0
  1  2  1  0  0  0
  3  6  1  0  0  0
  4  9  1  0  0  0
  5 10  1  0  0  0
  7 12  1  0  0  0
  8 11  1  0  0  0
  8 14  1  0  0  0
  9 19  1  0  0  0
 10 20  1  0  0  0
 11 23  1  0  0  0
 12 24  1  0  0  0
 13 20  1  0  0  0
 14 21  1  0  0  0
 15 17  1  0  0  0
 16 18  1  0  0  0
 17 20  1  0  0  0
 18 13  1  0  0  0
 18 21  1  0  0  0
  1  4  2  0  0  0
  2  5  2  0  0  0
  3  7  2  0  0  0
  6 11  2  0  0  0
  8 12  2  0  0  0
  9 10  2  0  0  0
 13 19  2  0  0  0
 14 22  2  0  0  0
M  END
> <rmsd>
0.402643114

$$$$
ZINC92120916


 24 26  0  0  0  0  0  0  0  0999 V2000
    2.1019    5.3908   -0.7206 C   0  0  0  0  0
    1.1250    5.2137   -1.7032 C   0  0  0  0  0
    6.4959   -3.1065    2.0547 C   0  0  0  0  0
    2.4455    4.3497    0.1509 C   0  0  0  0  0
    0.4571    3.9936   -1.8512 C   0  0  0  0  0
    5.2661   -3.7541    1.9376 C   0  0  0  0  0
    6.6421   -1.7983    1.5928 C   0  0  0  0  0
    4.3286   -1.7856    0.8965 C   0  0  0  0  0
    1.7844    3.1171    0.0166 C   0  0  0  0  0
    0.8155    2.9711   -0.9722 C   0  0  0  0  0
    4.1824   -3.0937    1.3585 C   0  0  0  0  0
    5.5585   -1.1380    1.0137 C   0  0  0  0  0
    1.0750    1.1112    0.1976 C   0  0  0  0  0
    3.1748   -1.0824    0.2793 C   0  0  0  0  0
   -2.0390    1.4619   -1.2411 C   0  0  0  0  0
   -0.2453   -0.4387    1.6964 C   0  0  0  0  0
   -0.6359    1.0353   -1.6370 C   0  0  0  0  0
    0.8503   -0.2857    0.6229 C   0  0  0  0  0
    1.9319    1.9515    0.7329 N   0  0  0  0  0
    0.3788    1.6785   -0.8332 N   0  0  0  0  0
    2.0708   -0.9321    1.0915 N   0  0  0  0  0
    3.2563   -0.7046   -0.8866 O   0  0  0  0  0
    2.9894   -3.7452    1.2550 O   0  0  0  0  0
    5.7231    0.1402    0.5698 O   0  0  0  0  0
  1  2  1  0  0  0
  3  6  1  0  0  0
  4  9  1  0  0  0
  5 10  1  0  0  0
  7 12  1  0  0  0
  8 11  1  0  0  0
  8 14  1  0  0  0
  9 19  1  0  0  0
 10 20  1  0  0  0
 11 23  1  0  0  0
 12 24  1  0  0  0
 13 20  1  0  0  0
 14 21  1  0  0  0
 15 17  1  0  0  0
 16 18  1  0  0  0
 17 20  1  0  0  0
 18 13  1  0  0  0
 18 21  1  0  0  0
  1  4  2  0  0  0
  2  5  2  0  0  0
  3  7  2  0  0  0
  6 11  2  0  0  0
  8 12  2  0  0  0
  9 10  2  0  0  0
 13 19  2  0  0  0
 14 22  2  0  0  0
M  END
> <rmsd>
0.412375838

$$$$
ZINC92120913


 24 26  0  0  0  0  0  0  0  0999 V2000
    1.7993    5.1433   -1.6775 C   0  0  0  0  0
    1.6059    5.5585   -0.3579 C   0  0  0  0  0
    6.4848   -3.0896    2.0853 C   0  0  0  0  0
    1.7235    3.7890   -2.0261 C   0  0  0  0  0
    1.3304    4.6388    0.6594 C   0  0  0  0  0
    5.2580   -3.7417    1.9609 C   0  0  0  0  0
    6.6314   -1.7842    1.6161 C   0  0  0  0  0
    4.3246   -1.7831    0.8980 C   0  0  0  0  0
    1.4477    2.8512   -1.0167 C   0  0  0  0  0
    1.2597    3.2955    0.2891 C   0  0  0  0  0
    4.1780   -3.0884    1.3673 C   0  0  0  0  0
    5.5514   -1.1310    1.0224 C   0  0  0  0  0
    1.0626    1.0970    0.1384 C   0  0  0  0  0
    3.1746   -1.0874    0.2651 C   0  0  0  0  0
    2.0192    2.2274    3.2523 C   0  0  0  0  0
    0.2257   -1.2059   -0.4972 C   0  0  0  0  0
    0.7530    2.0818    2.4259 C   0  0  0  0  0
    0.8447   -0.2954    0.5816 C   0  0  0  0  0
    1.3213    1.4830   -1.0909 N   0  0  0  0  0
    1.0151    2.1524    1.0061 N   0  0  0  0  0
    2.0626   -0.9350    1.0659 N   0  0  0  0  0
    3.2661   -0.7172   -0.9024 O   0  0  0  0  0
    2.9880   -3.7441    1.2569 O   0  0  0  0  0
    5.7165    0.1447    0.5716 O   0  0  0  0  0
  1  2  1  0  0  0
  3  6  1  0  0  0
  4  9  1  0  0  0
  5 10  1  0  0  0
  7 12  1  0  0  0
  8 11  1  0  0  0
  8 14  1  0  0  0
  9 19  1  0  0  0
 10 20  1  0  0  0
 11 23  1  0  0  0
 12 24  1  0  0  0
 13 20  1  0  0  0
 14 21  1  0  0  0
 15 17  1  0  0  0
 16 18  1  0  0  0
 17 20  1  0  0  0
 18 13  1  0  0  0
 18 21  1  0  0  0
  1  4  2  0  0  0
  2  5  2  0  0  0
  3  7  2  0  0  0
  6 11  2  0  0  0
  8 12  2  0  0  0
  9 10  2  0  0  0
 13 19  2  0  0  0
 14 22  2  0  0  0
M  END
> <rmsd>
0.41161713

$$$$
ZINC92120913


 24 26  0  0  0  0  0  0  0  0999 V2000
    2.0439    5.1463   -1.5545 C   0  0  0  0  0
    1.1939    5.5700   -0.5302 C   0  0  0  0  0
    6.4867   -3.0945    2.0805 C   0  0  0  0  0
    2.3203    3.7867   -1.7465 C   0  0  0  0  0
    0.5902    4.6539    0.3376 C   0  0  0  0  0
    5.2589   -3.7449    1.9575 C   0  0  0  0  0
    6.6342   -1.7888    1.6123 C   0  0  0  0  0
    4.3263   -1.7840    0.8980 C   0  0  0  0  0
    1.7225    2.8526   -0.8837 C   0  0  0  0  0
    0.8799    3.3054    0.1277 C   0  0  0  0  0
    4.1787   -3.0897    1.3662 C   0  0  0  0  0
    5.5541   -1.1336    1.0210 C   0  0  0  0  0
    1.0666    1.1009    0.1464 C   0  0  0  0  0
    3.1761   -1.0863    0.2676 C   0  0  0  0  0
   -1.8200    1.6664    1.5088 C   0  0  0  0  0
    0.2258   -1.2003   -0.4900 C   0  0  0  0  0
   -0.4193    2.1009    1.9046 C   0  0  0  0  0
    0.8477   -0.2916    0.5887 C   0  0  0  0  0
    1.8262    1.4807   -0.8565 N   0  0  0  0  0
    0.4750    2.1637    0.7705 N   0  0  0  0  0
    2.0656   -0.9333    1.0704 N   0  0  0  0  0
    3.2661   -0.7151   -0.8997 O   0  0  0  0  0
    2.9877   -3.7437    1.2571 O   0  0  0  0  0
    5.7200    0.1423    0.5711 O   0  0  0  0  0
  1  2  1  0  0  0
  3  6  1  0  0  0
  4  9  1  0  0  0
  5 10  1  0  0  0
  7 12  1  0  0  0
  8 11  1  0  0  0
  8 14  1  0  0  0
  9 19  1  0  0  0
 10 20  1  0  0  0
 11 23  1  0  0  0
 12 24  1  0  0  0
 13 20  1  0  0  0
 14 21  1  0  0  0
 15 17  1  0  0  0
 16 18  1  0  0  0
 17 20  1  0  0  0
 18 13  1  0  0  0
 18 21  1  0  0  0
  1  4  2  0  0  0
  2  5  2  0  0  0
  3  7  2  0  0  0
  6 11  2  0  0  0
  8 12  2  0  0  0
  9 10  2  0  0  0
 13 19  2  0  0  0
 14 22  2  0  0  0
M  END
> <rmsd>
0.40326938

$$$$
ZINC92123749


 24 26  0  0  0  0  0  0  0  0999 V2000
    2.6580    6.1811    4.0187 C   0  0  0  0  0
    1.9777    5.2887    4.8473 C   0  0  0  0  0
    3.0733    5.7767    2.7499 C   0  0  0  0  0
    6.4918   -3.1850    1.9995 C   0  0  0  0  0
    1.7126    3.9919    4.4070 C   0  0  0  0  0
    2.8082    4.4799    2.3097 C   0  0  0  0  0
    5.2341   -3.7672    1.8418 C   0  0  0  0  0
    6.7067   -1.8682    1.5926 C   0  0  0  0  0
    4.4063   -1.7159    0.8700 C   0  0  0  0  0
    2.1278    3.5875    3.1383 C   0  0  0  0  0
    4.1914   -3.0327    1.2771 C   0  0  0  0  0
    5.6640   -1.1337    1.0278 C   0  0  0  0  0
    3.3090   -0.9428    0.2748 C   0  0  0  0  0
    3.0017    1.2330    3.0459 C   0  0  0  0  0
    2.7530   -0.1929    2.5631 C   0  0  0  0  0
    1.3414    0.6164    0.7176 C   0  0  0  0  0
    1.8395    2.1743    2.6580 C   0  0  0  0  0
    1.5391    2.0846    1.1338 C   0  0  0  0  0
    0.0275    2.8035   -0.7229 C   0  0  0  0  0
    0.3007    2.8958    0.7409 C   0  0  0  0  0
    2.4915   -0.1973    1.1267 N   0  0  0  0  0
    3.1874   -1.0234   -0.9465 O   0  0  0  0  0
    2.9701   -3.6210    1.1332 O   0  0  0  0  0
    5.8957    0.1516    0.6378 O   0  0  0  0  0
  1  2  1  0  0  0
  3  6  1  0  0  0
  4  7  1  0  0  0
  5 10  1  0  0  0
  8 12  1  0  0  0
  9 11  1  0  0  0
  9 13  1  0  0  0
 11 23  1  0  0  0
 12 24  1  0  0  0
 13 21  1  0  0  0
 14 15  1  0  0  0
 14 17  1  0  0  0
 15 21  1  0  0  0
 16 18  1  0  0  0
 16 21  1  0  0  0
 17 10  1  0  0  0
 17 18  1  0  0  0
 18 20  1  0  0  0
 19 20  1  0  0  0
  1  3  2  0  0  0
  2  5  2  0  0  0
  4  8  2  0  0  0
  6 10  2  0  0  0
  7 11  2  0  0  0
  9 12  2  0  0  0
 13 22  2  0  0  0
M  END
> <rmsd>
0.456415266

$$$$
ZINC92123746


 24 26  0  0  0  0  0  0  0  0999 V2000
    1.4480    6.2203    4.0488 C   0  0  0  0  0
    2.4213    6.1091    3.0559 C   0  0  0  0  0
    0.7411    5.0910    4.4619 C   0  0  0  0  0
    6.4517   -3.2091    2.0247 C   0  0  0  0  0
    2.6875    4.8687    2.4759 C   0  0  0  0  0
    1.0072    3.8507    3.8821 C   0  0  0  0  0
    5.1821   -3.7644    1.8661 C   0  0  0  0  0
    6.6979   -1.9008    1.6078 C   0  0  0  0  0
    4.4046   -1.7034    0.8734 C   0  0  0  0  0
    1.9804    3.7395    2.8890 C   0  0  0  0  0
    4.1585   -3.0116    1.2905 C   0  0  0  0  0
    5.6743   -1.1481    1.0322 C   0  0  0  0  0
    3.3255   -0.9095    0.2658 C   0  0  0  0  0
    2.0359    1.1770    3.1786 C   0  0  0  0  0
    2.6808   -0.0728    2.5715 C   0  0  0  0  0
    1.4347    0.6557    0.5518 C   0  0  0  0  0
    2.2694    2.3892    2.2580 C   0  0  0  0  0
    1.5855    2.1589    0.8727 C   0  0  0  0  0
   -0.3672    2.5604   -0.6322 C   0  0  0  0  0
    0.2107    2.8211    0.7164 C   0  0  0  0  0
    2.5223   -0.1392    1.1124 N   0  0  0  0  0
    3.2139   -0.9826   -0.9568 O   0  0  0  0  0
    2.9251   -3.5737    1.1459 O   0  0  0  0  0
    5.9364    0.1285    0.6325 O   0  0  0  0  0
  1  2  1  0  0  0
  3  6  1  0  0  0
  4  7  1  0  0  0
  5 10  1  0  0  0
  8 12  1  0  0  0
  9 11  1  0  0  0
  9 13  1  0  0  0
 11 23  1  0  0  0
 12 24  1  0  0  0
 13 21  1  0  0  0
 14 15  1  0  0  0
 14 17  1  0  0  0
 15 21  1  0  0  0
 16 18  1  0  0  0
 16 21  1  0  0  0
 17 10  1  0  0  0
 17 18  1  0  0  0
 18 20  1  0  0  0
 19 20  1  0  0  0
  1  3  2  0  0  0
  2  5  2  0  0  0
  4  8  2  0  0  0
  6 10  2  0  0  0
  7 11  2  0  0  0
  9 12  2  0  0  0
 13 22  2  0  0  0
M  END
> <rmsd>
0.467133999

$$$$
ZINC92117482


 24 26  0  0  0  0  0  0  0  0999 V2000
    6.3326   -3.0083    2.3856 C   0  0  0  0  0
    0.5595    1.1636    1.0392 C   0  0  0  0  0
    0.5211    2.5577    1.0576 C   0  0  0  0  0
    5.1128   -3.6672    2.2324 C   0  0  0  0  0
    6.5292   -1.7589    1.7972 C   0  0  0  0  0
    0.7915    1.1944   -1.3677 C   0  0  0  0  0
    4.2861   -1.8274    0.9023 C   0  0  0  0  0
    0.7398    2.5923   -1.3609 C   0  0  0  0  0
    0.6919    0.4831   -0.1710 C   0  0  0  0  0
    0.6010    3.2684   -0.1421 C   0  0  0  0  0
    4.0895   -3.0767    1.4907 C   0  0  0  0  0
    5.5060   -1.1686    1.0556 C   0  0  0  0  0
    0.4912    5.4621   -1.2484 C   0  0  0  0  0
    3.1967   -1.1987    0.1118 C   0  0  0  0  0
    0.9401    3.3825   -2.6219 C   0  0  0  0  0
    0.2208    4.7208   -2.5432 C   0  0  0  0  0
   -0.5254   -1.6610    0.3883 C   0  0  0  0  0
    0.7408   -1.0076   -0.1849 C   0  0  0  0  0
    0.5706    4.6743   -0.1161 N   0  0  0  0  0
    1.9121   -1.5223    0.5041 N   0  0  0  0  0
    0.5380    6.6916   -1.2141 O   0  0  0  0  0
    3.4853   -0.4655   -0.8304 O   0  0  0  0  0
    2.9052   -3.7378    1.3546 O   0  0  0  0  0
    5.7192    0.0531    0.4899 O   0  0  0  0  0
  1  4  1  0  0  0
  2  9  1  0  0  0
  3 10  1  0  0  0
  5 12  1  0  0  0
  6  8  1  0  0  0
  7 11  1  0  0  0
  7 14  1  0  0  0
 10 19  1  0  0  0
 11 23  1  0  0  0
 12 24  1  0  0  0
 13 19  1  0  0  0
 14 20  1  0  0  0
 15  8  1  0  0  0
 15 16  1  0  0  0
 16 13  1  0  0  0
 17 18  1  0  0  0
 18  9  1  0  0  0
 18 20  1  0  0  0
  1  5  2  0  0  0
  2  3  2  0  0  0
  4 11  2  0  0  0
  6  9  2  0  0  0
  7 12  2  0  0  0
  8 10  2  0  0  0
 13 21  2  0  0  0
 14 22  2  0  0  0
M  END
> <rmsd>
0.341241926

$$$$
ZINC77286909


 22 23  0  0  0  0  0  0  0  0999 V2000
    1.0748    3.3528    2.0554 C   0  0  0  0  0
   -0.1797    3.3406    1.1813 C   0  0  0  0  0
    2.2632    2.7550    1.2983 C   0  0  0  0  0
    4.4788   -2.3458    0.8061 C   0  0  0  0  0
   -0.5166    1.9302    0.6902 C   0  0  0  0  0
    1.9693    1.3676    0.7119 C   0  0  0  0  0
    4.7479   -2.8303   -0.6251 C   0  0  0  0  0
    4.1687   -0.8473    0.8634 C   0  0  0  0  0
    0.6694    1.3762   -0.1074 C   0  0  0  0  0
    3.7296   -2.2617   -1.6288 C   0  0  0  0  0
    3.1782   -0.4248   -0.2253 C   0  0  0  0  0
    4.0840   -2.5742   -3.0784 C   0  0  0  0  0
   -1.3172    3.8899    1.9657 N   0  0  0  0  0
    3.4100    2.6535    2.2477 N   0  0  0  0  0
    3.3245   -3.1032    1.3681 N   0  0  0  0  0
    3.6484   -0.8361   -1.5087 O   0  0  0  0  0
   -0.7569    1.0574    1.7969 O   0  0  0  0  0
    6.0720   -2.4196   -0.9740 O   0  0  0  0  0
    5.3993   -0.1391    0.6809 O   0  0  0  0  0
    0.3572    0.0474   -0.5254 O   0  0  0  0  0
    4.1359   -3.9805   -3.2375 O   0  0  0  0  0
    3.0250    0.9913   -0.1759 O   0  0  0  0  0
  1  2  1  0  0  0
  1  3  1  0  0  0
  2  5  1  0  0  0
  2 13  1  0  0  0
  3  6  1  0  0  0
  3 14  1  0  0  0
  4  7  1  0  0  0
  4  8  1  0  0  0
  4 15  1  0  0  0
  5  9  1  0  0  0
  5 17  1  0  0  0
  6  9  1  0  0  0
  6 22  1  0  0  0
  7 10  1  0  0  0
  7 18  1  0  0  0
  8 11  1  0  0  0
  8 19  1  0  0  0
  9 20  1  0  0  0
 10 12  1  0  0  0
 10 16  1  0  0  0
 11 16  1  0  0  0
 11 22  1  0  0  0
 12 21  1  0  0  0
M  CHG  3  13   1  14   1  15   1
M  END
> <rmsd>
0.506501913

$$$$
ZINC77286907


 22 23  0  0  0  0  0  0  0  0999 V2000
    0.5812    2.5635    1.8054 C   0  0  0  0  0
    1.8581    3.3830    1.6332 C   0  0  0  0  0
    0.6928    1.2283    1.0479 C   0  0  0  0  0
    4.5313   -2.3781    0.7485 C   0  0  0  0  0
    2.0933    3.7770    0.1634 C   0  0  0  0  0
    1.5355    1.3103   -0.2360 C   0  0  0  0  0
    4.7154   -2.7696   -0.7240 C   0  0  0  0  0
    4.1698   -0.8994    0.9156 C   0  0  0  0  0
    1.5290    2.7264   -0.8126 C   0  0  0  0  0
    3.6070   -2.1887   -1.6194 C   0  0  0  0  0
    3.0884   -0.4583   -0.0749 C   0  0  0  0  0
    3.8681   -2.4041   -3.1060 C   0  0  0  0  0
    1.7953    4.5842    2.5027 N   0  0  0  0  0
   -0.6858    0.7816    0.6982 N   0  0  0  0  0
    3.4498   -3.2136    1.3435 N   0  0  0  0  0
    3.4808   -0.7767   -1.4099 O   0  0  0  0  0
    1.4419    5.0084   -0.1625 O   0  0  0  0  0
    5.9946   -2.2848   -1.1390 O   0  0  0  0  0
    5.3564   -0.1313    0.6902 O   0  0  0  0  0
    2.2900    2.7448   -2.0199 O   0  0  0  0  0
    2.7922   -1.8465   -3.8389 O   0  0  0  0  0
    2.8857    0.9451    0.0686 O   0  0  0  0  0
  1  2  1  0  0  0
  1  3  1  0  0  0
  2  5  1  0  0  0
  2 13  1  0  0  0
  3  6  1  0  0  0
  3 14  1  0  0  0
  4  7  1  0  0  0
  4  8  1  0  0  0
  4 15  1  0  0  0
  5  9  1  0  0  0
  5 17  1  0  0  0
  6  9  1  0  0  0
  6 22  1  0  0  0
  7 10  1  0  0  0
  7 18  1  0  0  0
  8 11  1  0  0  0
  8 19  1  0  0  0
  9 20  1  0  0  0
 10 12  1  0  0  0
 10 16  1  0  0  0
 11 16  1  0  0  0
 11 22  1  0  0  0
 12 21  1  0  0  0
M  CHG  3  13   1  14   1  15   1
M  END
> <rmsd>
0.528288364

$$$$
ZINC77286909


 22 23  0  0  0  0  0  0  0  0999 V2000
    1.0759    3.3791    2.0249 C   0  0  0  0  0
    0.0418    3.6784    0.9301 C   0  0  0  0  0
    2.2901    2.6524    1.4543 C   0  0  0  0  0
    4.5083   -2.3644    0.7870 C   0  0  0  0  0
    0.1788    2.7617   -0.2965 C   0  0  0  0  0
    1.9215    1.2964    0.8277 C   0  0  0  0  0
    4.7532   -2.8143   -0.6597 C   0  0  0  0  0
    4.1690   -0.8742    0.8823 C   0  0  0  0  0
    0.5783    1.3281    0.0740 C   0  0  0  0  0
    3.6999   -2.2473   -1.6276 C   0  0  0  0  0
    3.1443   -0.4510   -0.1740 C   0  0  0  0  0
    4.0260   -2.5231   -3.0911 C   0  0  0  0  0
   -1.3180    3.5541    1.5310 N   0  0  0  0  0
    3.2687    2.4179    2.5553 N   0  0  0  0  0
    3.3835   -3.1572    1.3601 N   0  0  0  0  0
    3.5923   -0.8264   -1.4763 O   0  0  0  0  0
   -1.0182    2.7754   -1.0675 O   0  0  0  0  0
    6.0599   -2.3689   -1.0309 O   0  0  0  0  0
    5.3800   -0.1368    0.6857 O   0  0  0  0  0
   -0.4204    0.7552    0.9202 O   0  0  0  0  0
    2.8349   -2.4087   -3.8486 O   0  0  0  0  0
    2.9632    0.9603   -0.0919 O   0  0  0  0  0
  1  2  1  0  0  0
  1  3  1  0  0  0
  2  5  1  0  0  0
  2 13  1  0  0  0
  3  6  1  0  0  0
  3 14  1  0  0  0
  4  7  1  0  0  0
  4  8  1  0  0  0
  4 15  1  0  0  0
  5  9  1  0  0  0
  5 17  1  0  0  0
  6  9  1  0  0  0
  6 22  1  0  0  0
  7 10  1  0  0  0
  7 18  1  0  0  0
  8 11  1  0  0  0
  8 19  1  0  0  0
  9 20  1  0  0  0
 10 12  1  0  0  0
 10 16  1  0  0  0
 11 16  1  0  0  0
 11 22  1  0  0  0
 12 21  1  0  0  0
M  CHG  3  13   1  14   1  15   1
M  END
> <rmsd>
0.49306199

$$$$
ZINC92106217


 23 25  0  0  0  0  0  0  0  0999 V2000
    4.3397    6.1378   -1.5995 C   0  0  0  0  0
    3.0154    6.4502   -1.2928 C   0  0  0  0  0
    4.8026    4.8314   -1.4419 C   0  0  0  0  0
    6.3427   -2.9578    2.3811 C   0  0  0  0  0
    2.1540    5.4563   -0.8284 C   0  0  0  0  0
    3.9411    3.8375   -0.9775 C   0  0  0  0  0
    5.1336   -3.6271    2.1925 C   0  0  0  0  0
    6.5287   -1.6871    1.8367 C   0  0  0  0  0
   -0.1058    1.9386    0.8318 C   0  0  0  0  0
    2.6168    4.1500   -0.6707 C   0  0  0  0  0
    4.2965   -1.7552    0.9151 C   0  0  0  0  0
    4.1105   -3.0259    1.4595 C   0  0  0  0  0
    5.5056   -1.0858    1.1037 C   0  0  0  0  0
    0.8600    1.1534    0.2378 C   0  0  0  0  0
    1.7257    3.1222   -0.1914 C   0  0  0  0  0
    3.2071   -1.1148    0.1338 C   0  0  0  0  0
    0.8567   -0.3218    0.1824 C   0  0  0  0  0
    1.9108    1.8304   -0.3498 N   0  0  0  0  0
    2.0175   -0.9115    0.8131 N   0  0  0  0  0
    3.4032   -0.8261   -1.0438 O   0  0  0  0  0
    2.9367   -3.6976    1.2883 O   0  0  0  0  0
    5.7082    0.1568    0.5813 O   0  0  0  0  0
    0.3092    3.5933    0.6552 S   0  0  0  0  0
  1  2  1  0  0  0
  3  6  1  0  0  0
  4  7  1  0  0  0
  5 10  1  0  0  0
  8 13  1  0  0  0
  9 23  1  0  0  0
 10 15  1  0  0  0
 11 12  1  0  0  0
 11 16  1  0  0  0
 12 21  1  0  0  0
 13 22  1  0  0  0
 14 18  1  0  0  0
 15 23  1  0  0  0
 16 19  1  0  0  0
 17 14  1  0  0  0
 17 19  1  0  0  0
  1  3  2  0  0  0
  2  5  2  0  0  0
  4  8  2  0  0  0
  6 10  2  0  0  0
  7 12  2  0  0  0
  9 14  2  0  0  0
 11 13  2  0  0  0
 15 18  2  0  0  0
 16 20  2  0  0  0
M  END
> <rmsd>
0.278926641

$$$$
ZINC92106217


 23 25  0  0  0  0  0  0  0  0999 V2000
    1.8980    6.2299   -3.4259 C   0  0  0  0  0
    1.1755    6.5072   -2.2654 C   0  0  0  0  0
    2.3664    4.9377   -3.6637 C   0  0  0  0  0
    6.3492   -2.9689    2.3683 C   0  0  0  0  0
    0.9215    5.4926   -1.3427 C   0  0  0  0  0
    2.1126    3.9230   -2.7409 C   0  0  0  0  0
    5.1378   -3.6348    2.1825 C   0  0  0  0  0
    6.5359   -1.6970    1.8268 C   0  0  0  0  0
    0.5903    1.9230    1.3751 C   0  0  0  0  0
    1.3901    4.2004   -1.5803 C   0  0  0  0  0
    4.2999   -1.7571    0.9140 C   0  0  0  0  0
    4.1132   -3.0290    1.4554 C   0  0  0  0  0
    5.5114   -1.0911    1.0998 C   0  0  0  0  0
    0.8676    1.1615    0.2591 C   0  0  0  0  0
    1.1266    3.1511   -0.6266 C   0  0  0  0  0
    3.2090   -1.1119    0.1390 C   0  0  0  0  0
    0.8606   -0.3135    0.1993 C   0  0  0  0  0
    1.1750    1.8640   -0.8898 N   0  0  0  0  0
    2.0225   -0.9078    0.8237 N   0  0  0  0  0
    3.4010   -0.8202   -1.0385 O   0  0  0  0  0
    2.9371   -3.6975    1.2869 O   0  0  0  0  0
    5.7148    0.1525    0.5802 O   0  0  0  0  0
    0.7185    3.5875    0.9821 S   0  0  0  0  0
  1  2  1  0  0  0
  3  6  1  0  0  0
  4  7  1  0  0  0
  5 10  1  0  0  0
  8 13  1  0  0  0
  9 23  1  0  0  0
 10 15  1  0  0  0
 11 12  1  0  0  0
 11 16  1  0  0  0
 12 21  1  0  0  0
 13 22  1  0  0  0
 14 18  1  0  0  0
 15 23  1  0  0  0
 16 19  1  0  0  0
 17 14  1  0  0  0
 17 19  1  0  0  0
  1  3  2  0  0  0
  2  5  2  0  0  0
  4  8  2  0  0  0
  6 10  2  0  0  0
  7 12  2  0  0  0
  9 14  2  0  0  0
 11 13  2  0  0  0
 15 18  2  0  0  0
 16 20  2  0  0  0
M  END
> <rmsd>
0.265605271

$$$$
ZINC92106217


 23 25  0  0  0  0  0  0  0  0999 V2000
   -0.1710    5.9768    4.1773 C   0  0  0  0  0
    0.5728    6.3256    3.0500 C   0  0  0  0  0
   -0.6549    4.6762    4.3186 C   0  0  0  0  0
    6.3182   -2.9442    2.4185 C   0  0  0  0  0
    0.8326    5.3738    2.0640 C   0  0  0  0  0
   -0.3950    3.7244    3.3326 C   0  0  0  0  0
    5.1095   -3.6118    2.2218 C   0  0  0  0  0
    6.5145   -1.6793    1.8641 C   0  0  0  0  0
    1.1763    1.9952   -0.8864 C   0  0  0  0  0
    0.3488    4.0731    2.2053 C   0  0  0  0  0
    4.2933   -1.7498    0.9165 C   0  0  0  0  0
    4.0970   -3.0147    1.4708 C   0  0  0  0  0
    5.5021   -1.0821    1.1132 C   0  0  0  0  0
    0.8739    1.1620    0.1703 C   0  0  0  0  0
    0.6183    3.0889    1.1861 C   0  0  0  0  0
    3.2153   -1.1138    0.1162 C   0  0  0  0  0
    0.8668   -0.3136    0.1290 C   0  0  0  0  0
    0.5542    1.7874    1.3596 N   0  0  0  0  0
    2.0182   -0.9006    0.7792 N   0  0  0  0  0
    3.4263   -0.8370   -1.0617 O   0  0  0  0  0
    2.9234   -3.6846    1.2920 O   0  0  0  0  0
    5.7147    0.1548    0.5814 O   0  0  0  0  0
    1.0566    3.6301   -0.3824 S   0  0  0  0  0
  1  2  1  0  0  0
  3  6  1  0  0  0
  4  7  1  0  0  0
  5 10  1  0  0  0
  8 13  1  0  0  0
  9 23  1  0  0  0
 10 15  1  0  0  0
 11 12  1  0  0  0
 11 16  1  0  0  0
 12 21  1  0  0  0
 13 22  1  0  0  0
 14 18  1  0  0  0
 15 23  1  0  0  0
 16 19  1  0  0  0
 17 14  1  0  0  0
 17 19  1  0  0  0
  1  3  2  0  0  0
  2  5  2  0  0  0
  4  8  2  0  0  0
  6 10  2  0  0  0
  7 12  2  0  0  0
  9 14  2  0  0  0
 11 13  2  0  0  0
 15 18  2  0  0  0
 16 20  2  0  0  0
M  END
> <rmsd>
0.259499699

$$$$
ZINC92124515


 24 26  0  0  0  0  0  0  0  0999 V2000
    0.3054    3.2769   -0.7535 C   0  0  0  0  0
    6.3272   -2.9277    2.4362 C   0  0  0  0  0
    0.3280    1.8854   -0.8477 C   0  0  0  0  0
    0.7944    3.9065    0.3911 C   0  0  0  0  0
    5.1269   -3.6090    2.2344 C   0  0  0  0  0
    6.5136   -1.6629    1.8785 C   0  0  0  0  0
    1.3285    1.7532    1.3475 C   0  0  0  0  0
    4.2994   -1.7605    0.9170 C   0  0  0  0  0
    0.8396    1.1235    0.2029 C   0  0  0  0  0
    1.3059    3.1447    1.4416 C   0  0  0  0  0
    4.1130   -3.0255    1.4748 C   0  0  0  0  0
    5.4997   -1.0793    1.1188 C   0  0  0  0  0
    3.2198   -1.1391    0.1073 C   0  0  0  0  0
    2.7200    5.4215    4.0356 C   0  0  0  0  0
    2.4540    4.1655    4.8404 C   0  0  0  0  0
    1.8301    5.2323    2.8124 C   0  0  0  0  0
    2.3610    3.0898    3.7644 C   0  0  0  0  0
   -0.4174   -1.0280    0.6307 C   0  0  0  0  0
    0.8629   -0.3641    0.1021 C   0  0  0  0  0
    1.7998    3.7804    2.5967 N   0  0  0  0  0
    2.0215   -0.9388    0.7650 N   0  0  0  0  0
    3.4354   -0.8645   -1.0702 O   0  0  0  0  0
    2.9476   -3.7084    1.2911 O   0  0  0  0  0
    5.7026    0.1578    0.5837 O   0  0  0  0  0
  1  4  1  0  0  0
  2  5  1  0  0  0
  3  9  1  0  0  0
  6 12  1  0  0  0
  7 10  1  0  0  0
  8 11  1  0  0  0
  8 13  1  0  0  0
 10 20  1  0  0  0
 11 23  1  0  0  0
 12 24  1  0  0  0
 13 21  1  0  0  0
 14 15  1  0  0  0
 14 16  1  0  0  0
 15 17  1  0  0  0
 16 20  1  0  0  0
 17 20  1  0  0  0
 18 19  1  0  0  0
 19  9  1  0  0  0
 19 21  1  0  0  0
  1  3  2  0  0  0
  2  6  2  0  0  0
  4 10  2  0  0  0
  5 11  2  0  0  0
  7  9  2  0  0  0
  8 12  2  0  0  0
 13 22  2  0  0  0
M  END
> <rmsd>
0.277423918

$$$$
ZINC92123233


 24 26  0  0  0  0  0  0  0  0999 V2000
    6.2771   -3.1169    2.3111 C   0  0  0  0  0
   -5.0421   -0.1048    1.1149 C   0  0  0  0  0
   -4.2847   -1.9572   -0.2386 C   0  0  0  0  0
   -3.7583    0.4399    1.0880 C   0  0  0  0  0
   -3.0008   -1.4125   -0.2655 C   0  0  0  0  0
    5.0084   -3.6729    2.1476 C   0  0  0  0  0
    6.5625   -1.8611    1.7750 C   0  0  0  0  0
    4.3106   -1.7177    0.9118 C   0  0  0  0  0
   -5.3053   -1.3033    0.4517 C   0  0  0  0  0
   -2.7377   -0.2139    0.3977 C   0  0  0  0  0
    4.0251   -2.9734    1.4480 C   0  0  0  0  0
    5.5793   -1.1616    1.0753 C   0  0  0  0  0
    3.2637   -0.9728    0.1660 C   0  0  0  0  0
   -0.0249    2.2634   -0.1831 C   0  0  0  0  0
    1.1722    1.5382    0.4198 C   0  0  0  0  0
   -1.3344    1.7962    0.4466 C   0  0  0  0  0
   -0.3241   -0.4389    0.9085 C   0  0  0  0  0
    0.9980    0.0253    0.2857 C   0  0  0  0  0
   -6.6775   -1.8867    0.4803 C   0  0  0  0  0
   -1.4494    0.3335    0.3688 N   0  0  0  0  0
    2.1145   -0.6722    0.8784 N   0  0  0  0  0
    3.4550   -0.6881   -1.0133 O   0  0  0  0  0
    2.7918   -3.5352    1.3010 O   0  0  0  0  0
    5.8794    0.0643    0.5604 O   0  0  0  0  0
  1  6  1  0  0  0
  2  9  1  0  0  0
  3  5  1  0  0  0
  4 10  1  0  0  0
  7 12  1  0  0  0
  8 11  1  0  0  0
  8 13  1  0  0  0
 10 20  1  0  0  0
 11 23  1  0  0  0
 12 24  1  0  0  0
 13 21  1  0  0  0
 14 15  1  0  0  0
 14 16  1  0  0  0
 15 18  1  0  0  0
 16 20  1  0  0  0
 17 18  1  0  0  0
 17 20  1  0  0  0
 18 21  1  0  0  0
 19  9  1  0  0  0
  1  7  2  0  0  0
  2  4  2  0  0  0
  3  9  2  0  0  0
  5 10  2  0  0  0
  6 11  2  0  0  0
  8 12  2  0  0  0
 13 22  2  0  0  0
M  END
> <rmsd>
0.398742616

$$$$
ZINC92121848


 22 23  0  0  0  0  0  0  0  0999 V2000
    6.2543   -2.9322    2.4192 C   0  0  0  0  0
    5.0336   -3.5783    2.2238 C   0  0  0  0  0
    6.4736   -1.6722    1.8622 C   0  0  0  0  0
    4.2515   -1.7043    0.9145 C   0  0  0  0  0
    4.0322   -2.9643    1.4715 C   0  0  0  0  0
    5.4722   -1.0584    1.1099 C   0  0  0  0  0
    3.1853   -1.0506    0.1127 C   0  0  0  0  0
   -0.5310    3.2983    0.0182 C   0  0  0  0  0
   -1.0092    1.3209   -1.3166 C   0  0  0  0  0
   -1.9425    3.8630   -0.0944 C   0  0  0  0  0
   -2.4678    1.6906   -1.5600 C   0  0  0  0  0
    1.2957    1.7970    1.6165 C   0  0  0  0  0
    1.7840    1.9103   -0.8314 C   0  0  0  0  0
    0.8518   -0.2075    0.1236 C   0  0  0  0  0
    0.8355    1.3293    0.2280 C   0  0  0  0  0
   -0.5175    1.8285   -0.0271 N   0  0  0  0  0
    1.9866   -0.8110    0.7719 N   0  0  0  0  0
    3.4014   -0.7801   -1.0657 O   0  0  0  0  0
   -1.7983    3.9948   -2.7786 O   0  0  0  0  0
    2.8465   -3.6131    1.2940 O   0  0  0  0  0
    5.7074    0.1733    0.5755 O   0  0  0  0  0
   -2.7047    3.4849   -1.6977 S   0  0  0  0  0
  1  2  1  0  0  0
  3  6  1  0  0  0
  4  5  1  0  0  0
  4  7  1  0  0  0
  5 20  1  0  0  0
  6 21  1  0  0  0
  7 17  1  0  0  0
  8 10  1  0  0  0
  8 16  1  0  0  0
  9 11  1  0  0  0
  9 16  1  0  0  0
 10 22  1  0  0  0
 11 22  1  0  0  0
 12 15  1  0  0  0
 13 15  1  0  0  0
 14 15  1  0  0  0
 14 17  1  0  0  0
 15 16  1  0  0  0
  1  3  2  0  0  0
  2  5  2  0  0  0
  4  6  2  0  0  0
  7 18  2  0  0  0
 22 19  2  0  0  0
M  END
> <rmsd>
0.485273808

$$$$
ZINC92123696


 23 24  0  0  0  0  0  0  0  0999 V2000
    6.3394   -2.9335    2.4197 C   0  0  0  0  0
    0.8493    3.9170    0.3371 C   0  0  0  0  0
    5.1393   -3.6161    2.2214 C   0  0  0  0  0
    6.5204   -1.6658    1.8665 C   0  0  0  0  0
    0.5174    3.1670    1.4654 C   0  0  0  0  0
    1.1825    3.2736   -0.8548 C   0  0  0  0  0
    4.3012   -1.7637    0.9165 C   0  0  0  0  0
    0.8523    1.1301    0.2099 C   0  0  0  0  0
    4.1202   -3.0312    1.4698 C   0  0  0  0  0
    5.5012   -1.0809    1.1149 C   0  0  0  0  0
    0.5190    1.7736    1.4019 C   0  0  0  0  0
    1.1841    1.8802   -0.9183 C   0  0  0  0  0
    3.2359   -1.1521    0.1300 C   0  0  0  0  0
    0.8581   -0.3690    0.1267 C   0  0  0  0  0
   -0.7200    1.6504    3.4284 C   0  0  0  0  0
    2.0146   -0.9423    0.7768 N   0  0  0  0  0
    3.4248   -0.8605   -1.0620 O   0  0  0  0  0
    2.9552   -3.7157    1.2894 O   0  0  0  0  0
    5.6989    0.1589    0.5841 O   0  0  0  0  0
    0.1921    1.0564    2.5134 O   0  0  0  0  0
    1.5061    1.2715   -2.0684 F   0  0  0  0  0
   -1.4068    0.6454    4.0307 F   0  0  0  0  0
   -0.0233    2.2808    4.4056 F   0  0  0  0  0
  1  3  1  0  0  0
  2  5  1  0  0  0
  4 10  1  0  0  0
  6 12  1  0  0  0
  7  9  1  0  0  0
  7 13  1  0  0  0
  8 11  1  0  0  0
  9 18  1  0  0  0
 10 19  1  0  0  0
 11 20  1  0  0  0
 12 21  1  0  0  0
 13 16  1  0  0  0
 14  8  1  0  0  0
 14 16  1  0  0  0
 15 20  1  0  0  0
 15 22  1  0  0  0
 15 23  1  0  0  0
  1  4  2  0  0  0
  2  6  2  0  0  0
  3  9  2  0  0  0
  5 11  2  0  0  0
  7 10  2  0  0  0
  8 12  2  0  0  0
 13 17  2  0  0  0
M  END
> <rmsd>
0.284646899

$$$$
ZINC92123696


 23 24  0  0  0  0  0  0  0  0999 V2000
    6.3341   -2.9296    2.4274 C   0  0  0  0  0
    0.8347    3.9145    0.3723 C   0  0  0  0  0
    5.1345   -3.6124    2.2274 C   0  0  0  0  0
    6.5167   -1.6631    1.8721 C   0  0  0  0  0
    1.1747    3.2942   -0.8299 C   0  0  0  0  0
    0.5040    3.1428    1.4862 C   0  0  0  0  0
    4.2999   -1.7624    0.9167 C   0  0  0  0  0
    0.8533    1.1304    0.1957 C   0  0  0  0  0
    4.1173   -3.0289    1.4720 C   0  0  0  0  0
    5.4995   -1.0795    1.1167 C   0  0  0  0  0
    1.1840    1.9022   -0.9182 C   0  0  0  0  0
    0.5133    1.7507    1.3979 C   0  0  0  0  0
    3.2367   -1.1522    0.1263 C   0  0  0  0  0
    0.8590   -0.3688    0.1154 C   0  0  0  0  0
    2.4281    2.0096   -2.9425 C   0  0  0  0  0
    2.0138   -0.9410    0.7696 N   0  0  0  0  0
    3.4286   -0.8631   -1.0658 O   0  0  0  0  0
    2.9527   -3.7136    1.2901 O   0  0  0  0  0
    5.6988    0.1593    0.5840 O   0  0  0  0  0
    1.5188    1.3127   -2.1000 O   0  0  0  0  0
    0.1936    1.0182    2.4740 F   0  0  0  0  0
    3.1241    1.0813   -3.6485 F   0  0  0  0  0
    1.7285    2.7372   -3.8474 F   0  0  0  0  0
  1  3  1  0  0  0
  2  5  1  0  0  0
  4 10  1  0  0  0
  6 12  1  0  0  0
  7  9  1  0  0  0
  7 13  1  0  0  0
  8 11  1  0  0  0
  9 18  1  0  0  0
 10 19  1  0  0  0
 11 20  1  0  0  0
 12 21  1  0  0  0
 13 16  1  0  0  0
 14  8  1  0  0  0
 14 16  1  0  0  0
 15 20  1  0  0  0
 15 22  1  0  0  0
 15 23  1  0  0  0
  1  4  2  0  0  0
  2  6  2  0  0  0
  3  9  2  0  0  0
  5 11  2  0  0  0
  7 10  2  0  0  0
  8 12  2  0  0  0
 13 17  2  0  0  0
M  END
> <rmsd>
0.283762485

$$$$
ZINC92123696


 23 24  0  0  0  0  0  0  0  0999 V2000
    6.3394   -2.9337    2.4194 C   0  0  0  0  0
    0.8487    3.9165    0.3376 C   0  0  0  0  0
    5.1394   -3.6164    2.2213 C   0  0  0  0  0
    6.5203   -1.6660    1.8662 C   0  0  0  0  0
    0.5171    3.1665    1.4659 C   0  0  0  0  0
    1.1818    3.2732   -0.8543 C   0  0  0  0  0
    4.3010   -1.7639    0.9165 C   0  0  0  0  0
    0.8519    1.1296    0.2104 C   0  0  0  0  0
    4.1201   -3.0315    1.4698 C   0  0  0  0  0
    5.5010   -1.0812    1.1147 C   0  0  0  0  0
    0.5187    1.7731    1.4024 C   0  0  0  0  0
    1.1834    1.8798   -0.9179 C   0  0  0  0  0
    3.2355   -1.1524    0.1301 C   0  0  0  0  0
    0.8577   -0.3694    0.1271 C   0  0  0  0  0
    1.0016    1.2370    3.6687 C   0  0  0  0  0
    2.0143   -0.9427    0.7770 N   0  0  0  0  0
    3.4243   -0.8608   -1.0619 O   0  0  0  0  0
    2.9551   -3.7161    1.2896 O   0  0  0  0  0
    5.6986    0.1587    0.5839 O   0  0  0  0  0
    0.1919    1.0559    2.5139 O   0  0  0  0  0
    1.5054    1.2711   -2.0681 F   0  0  0  0  0
    0.5050    0.4346    4.6455 F   0  0  0  0  0
    2.2559    0.7942    3.4070 F   0  0  0  0  0
  1  3  1  0  0  0
  2  5  1  0  0  0
  4 10  1  0  0  0
  6 12  1  0  0  0
  7  9  1  0  0  0
  7 13  1  0  0  0
  8 11  1  0  0  0
  9 18  1  0  0  0
 10 19  1  0  0  0
 11 20  1  0  0  0
 12 21  1  0  0  0
 13 16  1  0  0  0
 14  8  1  0  0  0
 14 16  1  0  0  0
 15 20  1  0  0  0
 15 22  1  0  0  0
 15 23  1  0  0  0
  1  4  2  0  0  0
  2  6  2  0  0  0
  3  9  2  0  0  0
  5 11  2  0  0  0
  7 10  2  0  0  0
  8 12  2  0  0  0
 13 17  2  0  0  0
M  END
> <rmsd>
0.284531206

$$$$
ZINC92126936


 24 26  0  0  0  0  0  0  0  0999 V2000
    6.3275   -2.9517    2.3994 C   0  0  0  0  0
    1.2672    5.5574   -0.7606 C   0  0  0  0  0
    1.7288    4.0139   -2.5611 C   0  0  0  0  0
    5.1177   -3.6186    2.2069 C   0  0  0  0  0
    6.5203   -1.6842    1.8500 C   0  0  0  0  0
    1.5315    6.6299   -1.6123 C   0  0  0  0  0
    1.9932    5.0865   -3.4129 C   0  0  0  0  0
    0.5830    1.9831    1.3688 C   0  0  0  0  0
    0.7392    3.2741    0.9271 C   0  0  0  0  0
    4.2935   -1.7507    0.9152 C   0  0  0  0  0
    1.3660    4.2494   -1.2350 C   0  0  0  0  0
    4.1006   -3.0181    1.4647 C   0  0  0  0  0
    5.5033   -1.0837    1.1078 C   0  0  0  0  0
    1.8945    6.3945   -2.9383 C   0  0  0  0  0
    0.8761    1.1884    0.2442 C   0  0  0  0  0
    3.2304   -1.1227    0.1385 C   0  0  0  0  0
    0.8626   -0.3102    0.1550 C   0  0  0  0  0
    1.1940    1.9141   -0.8311 N   0  0  0  0  0
    1.1018    3.1781   -0.3842 N   0  0  0  0  0
    2.0164   -0.9005    0.7947 N   0  0  0  0  0
    3.4147   -0.8288   -1.0536 O   0  0  0  0  0
    2.9260   -3.6874    1.2898 O   0  0  0  0  0
    5.7127    0.1557    0.5805 O   0  0  0  0  0
    2.1482    7.4245   -3.7563 F   0  0  0  0  0
  1  4  1  0  0  0
  2 11  1  0  0  0
  3  7  1  0  0  0
  5 13  1  0  0  0
  6 14  1  0  0  0
  8 15  1  0  0  0
  9 19  1  0  0  0
 10 12  1  0  0  0
 10 16  1  0  0  0
 11 19  1  0  0  0
 12 22  1  0  0  0
 13 23  1  0  0  0
 14 24  1  0  0  0
 16 20  1  0  0  0
 17 15  1  0  0  0
 17 20  1  0  0  0
 19 18  1  0  0  0
  1  5  2  0  0  0
  2  6  2  0  0  0
  3 11  2  0  0  0
  4 12  2  0  0  0
  7 14  2  0  0  0
  8  9  2  0  0  0
 10 13  2  0  0  0
 15 18  2  0  0  0
 16 21  2  0  0  0
M  END
> <rmsd>
0.267472506

$$$$
ZINC92124798


 23 25  0  0  0  0  0  0  0  0999 V2000
    0.2260    7.1269    2.7972 C   0  0  0  0  0
   -0.3563    5.9690    3.3127 C   0  0  0  0  0
    0.9749    7.0672    1.6218 C   0  0  0  0  0
    6.3281   -2.9490    2.4066 C   0  0  0  0  0
   -0.1896    4.7513    2.6531 C   0  0  0  0  0
    1.1416    5.8495    0.9622 C   0  0  0  0  0
    5.1197   -3.6180    2.2124 C   0  0  0  0  0
    6.5203   -1.6820    1.8556 C   0  0  0  0  0
    0.5593    4.6916    1.4778 C   0  0  0  0  0
    4.2956   -1.7531    0.9160 C   0  0  0  0  0
    4.1035   -3.0202    1.4670 C   0  0  0  0  0
    5.5041   -1.0842    1.1103 C   0  0  0  0  0
    0.7308    3.4325    0.7954 C   0  0  0  0  0
    0.8690    1.1557    0.1921 C   0  0  0  0  0
    3.2137   -1.1165    0.1216 C   0  0  0  0  0
    0.8639   -0.3201    0.1458 C   0  0  0  0  0
    1.0739    3.2822   -0.4662 N   0  0  0  0  0
    1.1539    1.9467   -0.8203 N   0  0  0  0  0
    2.0187   -0.9071    0.7899 N   0  0  0  0  0
    3.4197   -0.8356   -1.0562 O   0  0  0  0  0
    2.9302   -3.6914    1.2905 O   0  0  0  0  0
    5.7128    0.1547    0.5815 O   0  0  0  0  0
    0.4808    1.9678    1.6520 S   0  0  0  0  0
  1  2  1  0  0  0
  3  6  1  0  0  0
  4  7  1  0  0  0
  5  9  1  0  0  0
  8 12  1  0  0  0
  9 13  1  0  0  0
 10 11  1  0  0  0
 10 15  1  0  0  0
 11 21  1  0  0  0
 12 22  1  0  0  0
 13 23  1  0  0  0
 14 23  1  0  0  0
 15 19  1  0  0  0
 16 14  1  0  0  0
 16 19  1  0  0  0
 17 18  1  0  0  0
  1  3  2  0  0  0
  2  5  2  0  0  0
  4  8  2  0  0  0
  6  9  2  0  0  0
  7 11  2  0  0  0
 10 12  2  0  0  0
 13 17  2  0  0  0
 14 18  2  0  0  0
 15 20  2  0  0  0
M  END
> <rmsd>
0.261407375

$$$$
ZINC92124798


 23 25  0  0  0  0  0  0  0  0999 V2000
    1.5325    7.2876   -1.9606 C   0  0  0  0  0
    2.1028    6.1641   -2.5589 C   0  0  0  0  0
    0.7916    7.1522   -0.7864 C   0  0  0  0  0
    6.3429   -2.9604    2.3830 C   0  0  0  0  0
    1.9324    4.9050   -1.9830 C   0  0  0  0  0
    0.6211    5.8932   -0.2106 C   0  0  0  0  0
    5.1332   -3.6285    2.1939 C   0  0  0  0  0
    6.5307   -1.6901    1.8381 C   0  0  0  0  0
    1.1915    4.7697   -0.8089 C   0  0  0  0  0
    4.2991   -1.7562    0.9148 C   0  0  0  0  0
    4.1113   -3.0265    1.4597 C   0  0  0  0  0
    5.5088   -1.0881    1.1040 C   0  0  0  0  0
    1.0162    3.4680   -0.2131 C   0  0  0  0  0
    0.8665    1.1560    0.2336 C   0  0  0  0  0
    3.2111   -1.1152    0.1322 C   0  0  0  0  0
    0.8614   -0.3195    0.1786 C   0  0  0  0  0
    0.6812    3.2337    1.0378 N   0  0  0  0  0
    0.5944    1.8775    1.3001 N   0  0  0  0  0
    2.0211   -0.9100    0.8106 N   0  0  0  0  0
    3.4083   -0.8272   -1.0454 O   0  0  0  0  0
    2.9369   -3.6969    1.2879 O   0  0  0  0  0
    5.7133    0.1540    0.5811 O   0  0  0  0  0
    1.2497    2.0639   -1.1701 S   0  0  0  0  0
  1  2  1  0  0  0
  3  6  1  0  0  0
  4  7  1  0  0  0
  5  9  1  0  0  0
  8 12  1  0  0  0
  9 13  1  0  0  0
 10 11  1  0  0  0
 10 15  1  0  0  0
 11 21  1  0  0  0
 12 22  1  0  0  0
 13 23  1  0  0  0
 14 23  1  0  0  0
 15 19  1  0  0  0
 16 14  1  0  0  0
 16 19  1  0  0  0
 17 18  1  0  0  0
  1  3  2  0  0  0
  2  5  2  0  0  0
  4  8  2  0  0  0
  6  9  2  0  0  0
  7 11  2  0  0  0
 10 12  2  0  0  0
 13 17  2  0  0  0
 14 18  2  0  0  0
 15 20  2  0  0  0
M  END
> <rmsd>
0.264347613

$$$$
ZINC92119978


 24 26  0  0  0  0  0  0  0  0999 V2000
   -4.2871   -1.0807    0.7496 C   0  0  0  0  0
   -3.4829   -1.0354   -0.3892 C   0  0  0  0  0
   -3.9803   -0.2835    1.8523 C   0  0  0  0  0
    6.4432   -2.9898    2.2551 C   0  0  0  0  0
   -2.3716   -0.1931   -0.4251 C   0  0  0  0  0
   -2.8691    0.5589    1.8163 C   0  0  0  0  0
    5.2420   -3.6794    2.0912 C   0  0  0  0  0
    6.5816   -1.6987    1.7456 C   0  0  0  0  0
    4.3171   -1.7867    0.9080 C   0  0  0  0  0
   -2.0647    0.6042    0.6776 C   0  0  0  0  0
    4.1788   -3.0778    1.4176 C   0  0  0  0  0
    5.5185   -1.0971    1.0721 C   0  0  0  0  0
    3.1852   -1.1461    0.1901 C   0  0  0  0  0
    1.6851    2.5558   -0.2570 C   0  0  0  0  0
    1.5823    1.8772    1.1068 C   0  0  0  0  0
    0.3287    3.0775   -0.7106 C   0  0  0  0  0
   -0.8563    1.5203    0.6393 C   0  0  0  0  0
    0.4393    0.8484    1.1524 C   0  0  0  0  0
    0.8226   -0.4062    0.3543 C   0  0  0  0  0
    1.9978   -0.9799    0.9107 N   0  0  0  0  0
    3.3293   -0.8160   -0.9841 O   0  0  0  0  0
   -0.6555    2.0441   -0.6809 O   0  0  0  0  0
    3.0135   -3.7695    1.2696 O   0  0  0  0  0
    5.6749    0.1655    0.5830 O   0  0  0  0  0
  1  2  1  0  0  0
  3  6  1  0  0  0
  4  7  1  0  0  0
  5 10  1  0  0  0
  8 12  1  0  0  0
  9 11  1  0  0  0
  9 13  1  0  0  0
 11 23  1  0  0  0
 12 24  1  0  0  0
 13 20  1  0  0  0
 14 15  1  0  0  0
 14 16  1  0  0  0
 15 18  1  0  0  0
 16 22  1  0  0  0
 17 10  1  0  0  0
 17 18  1  0  0  0
 17 22  1  0  0  0
 18 19  1  0  0  0
 19 20  1  0  0  0
  1  3  2  0  0  0
  2  5  2  0  0  0
  4  8  2  0  0  0
  6 10  2  0  0  0
  7 11  2  0  0  0
  9 12  2  0  0  0
 13 21  2  0  0  0
M  END
> <rmsd>
0.393178225

$$$$
ZINC92122013


 24 26  0  0  0  0  0  0  0  0999 V2000
   -5.5313    2.0472    1.2448 C   0  0  0  0  0
   -4.7604    3.2053    1.3450 C   0  0  0  0  0
   -4.9267    0.7951    1.3565 C   0  0  0  0  0
    6.5229   -3.0789    2.1214 C   0  0  0  0  0
   -3.3849    3.1114    1.5569 C   0  0  0  0  0
   -3.5513    0.7011    1.5683 C   0  0  0  0  0
    5.3088   -3.7523    1.9873 C   0  0  0  0  0
    6.6533   -1.7743    1.6452 C   0  0  0  0  0
    4.3551   -1.8163    0.9010 C   0  0  0  0  0
   -2.7803    1.8592    1.6686 C   0  0  0  0  0
    4.2249   -3.1210    1.3771 C   0  0  0  0  0
    5.5693   -1.1431    1.0351 C   0  0  0  0  0
    3.2010   -1.1441    0.2505 C   0  0  0  0  0
    1.1407    3.2819   -0.1148 C   0  0  0  0  0
    1.7168    1.8844   -0.2146 C   0  0  0  0  0
   -0.3566    3.0458   -0.0601 C   0  0  0  0  0
    0.8805    1.1074    0.7917 C   0  0  0  0  0
   -1.3009    1.7574    1.8963 C   0  0  0  0  0
    0.8550   -0.3883    0.5355 C   0  0  0  0  0
    2.0516   -0.9918    1.0270 N   0  0  0  0  0
   -0.5138    1.6969    0.6228 N   0  0  0  0  0
    3.2995   -0.7800   -0.9183 O   0  0  0  0  0
    3.0473   -3.7973    1.2575 O   0  0  0  0  0
    5.7183    0.1323    0.5778 O   0  0  0  0  0
  1  2  1  0  0  0
  3  6  1  0  0  0
  4  7  1  0  0  0
  5 10  1  0  0  0
  8 12  1  0  0  0
  9 11  1  0  0  0
  9 13  1  0  0  0
 11 23  1  0  0  0
 12 24  1  0  0  0
 13 20  1  0  0  0
 14 15  1  0  0  0
 14 16  1  0  0  0
 15 17  1  0  0  0
 16 21  1  0  0  0
 17 19  1  0  0  0
 17 21  1  0  0  0
 18 10  1  0  0  0
 18 21  1  0  0  0
 19 20  1  0  0  0
  1  3  2  0  0  0
  2  5  2  0  0  0
  4  8  2  0  0  0
  6 10  2  0  0  0
  7 11  2  0  0  0
  9 12  2  0  0  0
 13 22  2  0  0  0
M  CHG  1  21   1
M  END
> <rmsd>
0.371549129

$$$$
ZINC92124565


 23 25  0  0  0  0  0  0  0  0999 V2000
    0.2406    2.5374    6.6466 C   0  0  0  0  0
    1.4830    3.1610    6.6785 C   0  0  0  0  0
    6.4022   -3.1988    2.1360 C   0  0  0  0  0
   -0.2546    2.0006    5.4547 C   0  0  0  0  0
    5.1339   -3.7656    2.0104 C   0  0  0  0  0
    6.6444   -1.9156    1.6454 C   0  0  0  0  0
    2.2625    3.2650    5.5236 C   0  0  0  0  0
    4.3501   -1.7662    0.9035 C   0  0  0  0  0
    0.5128    2.0921    4.2732 C   0  0  0  0  0
    4.1079   -3.0494    1.3941 C   0  0  0  0  0
    5.6183   -1.1994    1.0292 C   0  0  0  0  0
    1.7589    2.7237    4.3299 C   0  0  0  0  0
    1.1056    1.8693    2.1600 C   0  0  0  0  0
    3.2574   -1.0035    0.2465 C   0  0  0  0  0
   -0.0977    2.1981   -0.0262 C   0  0  0  0  0
    0.9861   -0.0447    0.5247 C   0  0  0  0  0
    1.0600    1.4974    0.7292 C   0  0  0  0  0
    0.1527    1.6084    3.0239 N   0  0  0  0  0
    2.1529   -0.7599    1.0334 N   0  0  0  0  0
    3.3852   -0.6620   -0.9264 O   0  0  0  0  0
    2.8758   -3.6221    1.2829 O   0  0  0  0  0
    5.8766    0.0532    0.5577 O   0  0  0  0  0
    2.4764    2.6965    2.7623 S   0  0  0  0  0
  1  2  1  0  0  0
  3  5  1  0  0  0
  4  9  1  0  0  0
  6 11  1  0  0  0
  7 12  1  0  0  0
  8 10  1  0  0  0
  8 14  1  0  0  0
  9 18  1  0  0  0
 10 21  1  0  0  0
 11 22  1  0  0  0
 12 23  1  0  0  0
 13 23  1  0  0  0
 14 19  1  0  0  0
 15 17  1  0  0  0
 16 17  1  0  0  0
 16 19  1  0  0  0
 17 13  1  0  0  0
  1  4  2  0  0  0
  2  7  2  0  0  0
  3  6  2  0  0  0
  5 10  2  0  0  0
  8 11  2  0  0  0
  9 12  2  0  0  0
 13 18  2  0  0  0
 14 20  2  0  0  0
M  END
> <rmsd>
0.380261153

$$$$
ZINC92124564


 23 25  0  0  0  0  0  0  0  0999 V2000
    5.6428    3.4560   -2.8850 C   0  0  0  0  0
    6.2481    3.9770   -1.7468 C   0  0  0  0  0
    6.3613   -3.1694    2.2140 C   0  0  0  0  0
    4.4141    2.7951   -2.7968 C   0  0  0  0  0
    5.0939   -3.7342    2.0716 C   0  0  0  0  0
    6.6196   -1.8974    1.7033 C   0  0  0  0  0
    5.6445    3.8522   -0.4929 C   0  0  0  0  0
    4.3429   -1.7548    0.9074 C   0  0  0  0  0
    3.7825    2.6552   -1.5421 C   0  0  0  0  0
    4.0847   -3.0269    1.4182 C   0  0  0  0  0
    5.6104   -1.1900    1.0499 C   0  0  0  0  0
    4.4105    3.1871   -0.4118 C   0  0  0  0  0
    2.2894    2.0853   -0.0211 C   0  0  0  0  0
    3.2683   -1.0016    0.2109 C   0  0  0  0  0
   -0.2197    2.2007    0.0759 C   0  0  0  0  0
    0.9951   -0.0293    0.4189 C   0  0  0  0  0
    1.0706    1.5164    0.5939 C   0  0  0  0  0
    2.5689    2.0272   -1.3023 N   0  0  0  0  0
    2.1474   -0.7382    0.9679 N   0  0  0  0  0
    3.4235   -0.6844   -0.9654 O   0  0  0  0  0
    2.8532   -3.5973    1.2910 O   0  0  0  0  0
    5.8841    0.0517    0.5592 O   0  0  0  0  0
    3.4326    2.8781    0.9743 S   0  0  0  0  0
  1  2  1  0  0  0
  3  5  1  0  0  0
  4  9  1  0  0  0
  6 11  1  0  0  0
  7 12  1  0  0  0
  8 10  1  0  0  0
  8 14  1  0  0  0
  9 18  1  0  0  0
 10 21  1  0  0  0
 11 22  1  0  0  0
 12 23  1  0  0  0
 13 23  1  0  0  0
 14 19  1  0  0  0
 15 17  1  0  0  0
 16 17  1  0  0  0
 16 19  1  0  0  0
 17 13  1  0  0  0
  1  4  2  0  0  0
  2  7  2  0  0  0
  3  6  2  0  0  0
  5 10  2  0  0  0
  8 11  2  0  0  0
  9 12  2  0  0  0
 13 18  2  0  0  0
 14 20  2  0  0  0
M  END
> <rmsd>
0.413827509

$$$$
ZINC92125766


 24 25  0  0  0  0  0  0  0  0999 V2000
    1.5853    2.2699    5.1224 C   0  0  0  0  0
    2.1000    3.1327    4.1548 C   0  0  0  0  0
    0.8977    1.1194    4.7362 C   0  0  0  0  0
    6.5000   -3.2327    2.0245 C   0  0  0  0  0
    1.9270    2.8450    2.8009 C   0  0  0  0  0
    0.7247    0.8317    3.3824 C   0  0  0  0  0
    5.2401   -3.8221    1.9208 C   0  0  0  0  0
    6.7012   -1.9312    1.5649 C   0  0  0  0  0
    4.3824   -1.8086    0.8973 C   0  0  0  0  0
    1.2392    1.6944    2.4147 C   0  0  0  0  0
    4.1813   -3.1101    1.3571 C   0  0  0  0  0
    5.6424   -1.2192    1.0012 C   0  0  0  0  0
    3.2550   -1.0504    0.2963 C   0  0  0  0  0
    0.0580    3.6957    0.4277 C   0  0  0  0  0
   -0.2595    1.8850   -1.2684 C   0  0  0  0  0
    0.9748   -0.1473    0.6713 C   0  0  0  0  0
   -1.5057    1.8013    0.8866 C   0  0  0  0  0
    1.0487    1.3780    0.9283 C   0  0  0  0  0
   -0.1401    2.1712    0.2421 C   0  0  0  0  0
    2.1563   -0.8439    1.1177 N   0  0  0  0  0
    3.3397   -0.6728   -0.8693 O   0  0  0  0  0
    2.9582   -3.7051    1.2666 O   0  0  0  0  0
    5.8608    0.0516    0.5591 O   0  0  0  0  0
   -2.5779    2.4807    0.2467 O   0  0  0  0  0
  1  2  1  0  0  0
  3  6  1  0  0  0
  4  7  1  0  0  0
  5 10  1  0  0  0
  8 12  1  0  0  0
  9 11  1  0  0  0
  9 13  1  0  0  0
 11 22  1  0  0  0
 12 23  1  0  0  0
 13 20  1  0  0  0
 14 19  1  0  0  0
 15 19  1  0  0  0
 16 18  1  0  0  0
 16 20  1  0  0  0
 17 19  1  0  0  0
 17 24  1  0  0  0
 18 10  1  0  0  0
 18 19  1  0  0  0
  1  3  2  0  0  0
  2  5  2  0  0  0
  4  8  2  0  0  0
  6 10  2  0  0  0
  7 11  2  0  0  0
  9 12  2  0  0  0
 13 21  2  0  0  0
M  END
> <rmsd>
0.439429879

$$$$
ZINC92123780


 24 25  0  0  0  0  0  0  0  0999 V2000
    5.8186    2.9219    4.1896 C   0  0  0  0  0
    5.3414    1.7378    3.6278 C   0  0  0  0  0
    4.9238    3.9138    4.5911 C   0  0  0  0  0
    6.5010   -2.9864    2.1991 C   0  0  0  0  0
    3.9691    1.5455    3.4673 C   0  0  0  0  0
    3.5516    3.7215    4.4306 C   0  0  0  0  0
    5.3112   -3.6979    2.0446 C   0  0  0  0  0
    6.6045   -1.6855    1.7066 C   0  0  0  0  0
    4.3288   -1.8076    0.9048 C   0  0  0  0  0
    3.0742    2.5373    3.8688 C   0  0  0  0  0
    4.2251   -3.1086    1.3974 C   0  0  0  0  0
    5.5185   -1.0961    1.0594 C   0  0  0  0  0
    3.1724   -1.1800    0.2150 C   0  0  0  0  0
    1.3911    2.6764   -0.0456 C   0  0  0  0  0
   -0.3820    3.1596    2.4337 C   0  0  0  0  0
    1.5982    2.3313    3.6962 C   0  0  0  0  0
    0.3752    0.7421    1.2261 C   0  0  0  0  0
    0.7983   -0.4916    0.4285 C   0  0  0  0  0
    1.4017    1.8827    1.2547 C   0  0  0  0  0
    2.0121   -1.0573    0.9652 N   0  0  0  0  0
    1.0849    2.8215    2.3669 N   0  0  0  0  0
    3.2904   -0.8301   -0.9564 O   0  0  0  0  0
    3.0717   -3.8216    1.2582 O   0  0  0  0  0
    5.6413    0.1764    0.5866 O   0  0  0  0  0
  1  2  1  0  0  0
  3  6  1  0  0  0
  4  7  1  0  0  0
  5 10  1  0  0  0
  8 12  1  0  0  0
  9 11  1  0  0  0
  9 13  1  0  0  0
 11 23  1  0  0  0
 12 24  1  0  0  0
 13 20  1  0  0  0
 14 19  1  0  0  0
 15 21  1  0  0  0
 16 10  1  0  0  0
 16 21  1  0  0  0
 17 18  1  0  0  0
 17 19  1  0  0  0
 18 20  1  0  0  0
 19 21  1  0  0  0
  1  3  2  0  0  0
  2  5  2  0  0  0
  4  8  2  0  0  0
  6 10  2  0  0  0
  7 11  2  0  0  0
  9 12  2  0  0  0
 13 22  2  0  0  0
M  CHG  1  21   1
M  END
> <rmsd>
0.503279984

$$$$
ZINC92126106


 23 24  0  0  0  0  0  0  0  0999 V2000
    6.3536   -2.9678    2.3838 C   0  0  0  0  0
    0.6416    3.8410    0.2428 C   0  0  0  0  0
    5.1446   -3.6381    2.1974 C   0  0  0  0  0
    6.5390   -1.6983    1.8362 C   0  0  0  0  0
   -0.0822    3.1005   -0.6917 C   0  0  0  0  0
    1.6035    1.8027    1.1129 C   0  0  0  0  0
    4.3064   -1.7696    0.9156 C   0  0  0  0  0
    1.4845    3.1921    1.1451 C   0  0  0  0  0
    0.8797    1.0621    0.1784 C   0  0  0  0  0
    4.1210   -3.0390    1.4632 C   0  0  0  0  0
    5.5154   -1.0992    1.1020 C   0  0  0  0  0
    0.0369    1.7111   -0.7239 C   0  0  0  0  0
    3.2364   -1.1432    0.1473 C   0  0  0  0  0
    2.2581    3.9843    2.1442 C   0  0  0  0  0
    1.0008   -0.3323    0.1477 N   0  0  0  0  0
    2.0325   -0.9298    0.8152 N   0  0  0  0  0
    3.4209   -0.8146   -1.0363 O   0  0  0  0  0
    2.9474   -3.7115    1.2943 O   0  0  0  0  0
    5.7174    0.1420    0.5764 O   0  0  0  0  0
   -0.6632    1.0093   -1.6265 F   0  0  0  0  0
    2.0436    5.3307    2.0600 F   0  0  0  0  0
    1.9727    3.6587    3.4397 F   0  0  0  0  0
    3.6068    3.8199    2.0140 F   0  0  0  0  0
  1  3  1  0  0  0
  2  8  1  0  0  0
  4 11  1  0  0  0
  5 12  1  0  0  0
  6  9  1  0  0  0
  7 10  1  0  0  0
  7 13  1  0  0  0
  9 15  1  0  0  0
 10 18  1  0  0  0
 11 19  1  0  0  0
 12 20  1  0  0  0
 13 16  1  0  0  0
 14  8  1  0  0  0
 14 21  1  0  0  0
 14 22  1  0  0  0
 14 23  1  0  0  0
 15 16  1  0  0  0
  1  4  2  0  0  0
  2  5  2  0  0  0
  3 10  2  0  0  0
  6  8  2  0  0  0
  7 11  2  0  0  0
  9 12  2  0  0  0
 13 17  2  0  0  0
M  END
> <rmsd>
0.244131804

$$$$
ZINC81944384


 24 26  0  0  0  0  0  0  0  0999 V2000
    7.6833   -1.6635    0.8085 C   0  0  0  0  0
    8.2115   -2.9202    1.1038 C   0  0  0  0  0
    6.0045   -3.7103    1.6886 C   0  0  0  0  0
    5.4763   -2.4534    1.3934 C   0  0  0  0  0
    6.3158   -1.4300    0.9533 C   0  0  0  0  0
    7.3721   -3.9437    1.5437 C   0  0  0  0  0
   -0.8661    2.5738   -0.0639 C   0  0  0  0  0
   -1.2104    1.2772   -0.1250 C   0  0  0  0  0
    0.4987    3.0135   -0.2862 C   0  0  0  0  0
    1.4530    2.1121   -0.5609 C   0  0  0  0  0
   -0.1398    0.3021   -0.4294 C   0  0  0  0  0
    1.9190   -0.3024   -0.8893 C   0  0  0  0  0
    4.0168   -2.2270    1.5533 C   0  0  0  0  0
    1.0748   -3.6674    0.1487 C   0  0  0  0  0
    1.4263   -2.7705   -1.0364 C   0  0  0  0  0
    1.7676   -3.2692    1.4501 C   0  0  0  0  0
   -0.2411   -0.9858   -0.5368 N   0  0  0  0  0
    1.1169    0.7893   -0.6257 N   0  0  0  0  0
    1.0392   -1.4008   -0.8264 N   0  0  0  0  0
    3.2003   -3.3343    1.3548 N   0  0  0  0  0
    3.1184   -0.3241   -1.1243 O   0  0  0  0  0
    3.6107   -1.1002    1.8252 O   0  0  0  0  0
    5.8189   -0.1953    0.6598 O   0  0  0  0  0
    7.8795   -5.1512    1.8240 F   0  0  0  0  0
  1  5  1  0  0  0
  2  6  1  0  0  0
  3  4  1  0  0  0
  4 13  1  0  0  0
  5 23  1  0  0  0
  6 24  1  0  0  0
  7  9  1  0  0  0
  8 11  1  0  0  0
 10 18  1  0  0  0
 11 18  1  0  0  0
 12 18  1  0  0  0
 12 19  1  0  0  0
 13 20  1  0  0  0
 14 15  1  0  0  0
 14 16  1  0  0  0
 15 19  1  0  0  0
 16 20  1  0  0  0
 19 17  1  0  0  0
  1  2  2  0  0  0
  3  6  2  0  0  0
  4  5  2  0  0  0
  7  8  2  0  0  0
  9 10  2  0  0  0
 11 17  2  0  0  0
 12 21  2  0  0  0
 13 22  2  0  0  0
M  END
> <rmsd>
0.483382434

$$$$
ZINC92123029


 24 26  0  0  0  0  0  0  0  0999 V2000
    6.3835   -3.1438    2.1166 C   0  0  0  0  0
    1.1306    2.1978    4.8329 C   0  0  0  0  0
    0.9747   -0.1992    5.0935 C   0  0  0  0  0
    5.1249   -3.7328    1.9963 C   0  0  0  0  0
    6.6006   -1.8559    1.6266 C   0  0  0  0  0
    0.9712    2.3577    6.2094 C   0  0  0  0  0
    0.8153   -0.0392    6.4700 C   0  0  0  0  0
    4.3002   -1.7462    0.8961 C   0  0  0  0  0
    1.1324    0.9193    4.2750 C   0  0  0  0  0
    4.0833   -3.0341    1.3860 C   0  0  0  0  0
    5.5589   -1.1572    1.0164 C   0  0  0  0  0
    0.8135    1.2392    7.0279 C   0  0  0  0  0
    3.2036   -1.0105    0.2528 C   0  0  0  0  0
    1.9978   -0.5821    2.4588 C   0  0  0  0  0
    0.7537   -0.6798    0.3535 C   0  0  0  0  0
    1.3060    0.7449    2.7821 C   0  0  0  0  0
    0.0413    0.6218    0.7307 C   0  0  0  0  0
    0.6232    1.8438    0.0227 C   0  0  0  0  0
    2.0578   -0.7540    1.0046 N   0  0  0  0  0
    3.3890   -0.6599   -0.9114 O   0  0  0  0  0
    0.0153    0.8009    2.1542 O   0  0  0  0  0
    2.8611   -3.6284    1.2800 O   0  0  0  0  0
    5.7926    0.1004    0.5454 O   0  0  0  0  0
    0.6631    1.3927    8.3501 F   0  0  0  0  0
  1  4  1  0  0  0
  2  9  1  0  0  0
  3  7  1  0  0  0
  5 11  1  0  0  0
  6 12  1  0  0  0
  8 10  1  0  0  0
  8 13  1  0  0  0
 10 22  1  0  0  0
 11 23  1  0  0  0
 12 24  1  0  0  0
 13 19  1  0  0  0
 14 16  1  0  0  0
 14 19  1  0  0  0
 15 17  1  0  0  0
 15 19  1  0  0  0
 16  9  1  0  0  0
 16 21  1  0  0  0
 17 18  1  0  0  0
 17 21  1  0  0  0
  1  5  2  0  0  0
  2  6  2  0  0  0
  3  9  2  0  0  0
  4 10  2  0  0  0
  7 12  2  0  0  0
  8 11  2  0  0  0
 13 20  2  0  0  0
M  END
> <rmsd>
0.29920876

$$$$
ZINC13660257


 24 25  0  0  0  0  0  0  0  0999 V2000
   -0.4228   -2.4153   -0.4651 C   0  0  0  0  0
    3.2815   -0.0203    3.9289 C   0  0  0  0  0
    5.4164    0.3130    2.8483 C   0  0  0  0  0
    0.9585   -4.0607    0.6402 C   0  0  0  0  0
    0.6212   -1.4930   -0.3968 C   0  0  0  0  0
    1.8340   -1.8543    0.1900 C   0  0  0  0  0
    3.5215   -0.4633    1.5661 C   0  0  0  0  0
    4.6247    0.3495    3.9961 C   0  0  0  0  0
   -0.2543   -3.6992    0.0534 C   0  0  0  0  0
    2.7299   -0.4268    2.7139 C   0  0  0  0  0
    4.8648   -0.0933    1.6332 C   0  0  0  0  0
    2.0026   -3.1383    0.7085 C   0  0  0  0  0
    2.9323   -0.8965    0.2663 C   0  0  0  0  0
    0.4114   -0.1597   -0.9474 C   0  0  0  0  0
    5.2141    0.7845    5.2951 C   0  0  0  0  0
   -1.0324   -5.8941    0.5362 C   0  0  0  0  0
    0.3772    2.1619   -0.4101 C   0  0  0  0  0
    3.4075   -0.4143   -0.7695 O   0  0  0  0  0
    0.1325    0.0701   -2.1297 O   0  0  0  0  0
    1.4152   -0.7838    2.6700 O   0  0  0  0  0
    5.6562   -0.1207    0.5238 O   0  0  0  0  0
    3.1787   -3.5129    1.2866 O   0  0  0  0  0
   -1.2729   -4.5996   -0.0134 O   0  0  0  0  0
    0.5607    0.8054    0.0092 O   0  0  0  0  0
  1  9  1  0  0  0
  2  8  1  0  0  0
  3 11  1  0  0  0
  4 12  1  0  0  0
  5  6  1  0  0  0
  5 14  1  0  0  0
  6 13  1  0  0  0
  7 10  1  0  0  0
  7 13  1  0  0  0
  9 23  1  0  0  0
 10 20  1  0  0  0
 11 21  1  0  0  0
 12 22  1  0  0  0
 14 24  1  0  0  0
 15  8  1  0  0  0
 16 23  1  0  0  0
 17 24  1  0  0  0
  1  5  2  0  0  0
  2 10  2  0  0  0
  3  8  2  0  0  0
  4  9  2  0  0  0
  6 12  2  0  0  0
  7 11  2  0  0  0
 13 18  2  0  0  0
 14 19  2  0  0  0
M  END
> <rmsd>
0.344440252

$$$$
ZINC59146664


 23 24  0  0  0  0  0  0  0  0999 V2000
    0.0606    2.2643    0.6992 C   0  0  0  0  0
    1.0255    3.0962    1.2564 C   0  0  0  0  0
   -0.0093    2.1177   -0.6817 C   0  0  0  0  0
    5.2443   -3.6080    2.3753 C   0  0  0  0  0
    6.4895   -1.5813    1.9521 C   0  0  0  0  0
    1.8899    3.7538    0.3960 C   0  0  0  0  0
    4.3239   -1.9039    0.9309 C   0  0  0  0  0
    6.3812   -2.8249    2.5746 C   0  0  0  0  0
    4.2156   -3.1475    1.5534 C   0  0  0  0  0
    5.4608   -1.1208    1.1303 C   0  0  0  0  0
    0.9012    2.8193   -1.4553 C   0  0  0  0  0
    3.2378   -1.4166    0.0624 C   0  0  0  0  0
    2.4754    0.5594   -2.7163 C   0  0  0  0  0
    1.1212    0.4699   -4.8364 C   0  0  0  0  0
    1.1358    0.8687   -3.3666 C   0  0  0  0  0
    1.8524    3.6365   -0.9502 N   0  0  0  0  0
    3.4632   -0.6312   -0.9402 N   0  0  0  0  0
    2.3506   -0.2852   -1.6269 N   0  0  0  0  0
    3.5365    1.0315   -3.1205 O   0  0  0  0  0
    7.3855   -3.2746    3.3759 O   0  0  0  0  0
    3.1141   -3.9293    1.3706 O   0  0  0  0  0
    5.5872    0.0978    0.5330 O   0  0  0  0  0
    0.8483    2.6619   -3.2126 S   0  0  0  0  0
  1  2  1  0  0  0
  3 11  1  0  0  0
  4  8  1  0  0  0
  5 10  1  0  0  0
  6 16  1  0  0  0
  7  9  1  0  0  0
  7 12  1  0  0  0
  8 20  1  0  0  0
  9 21  1  0  0  0
 10 22  1  0  0  0
 11 23  1  0  0  0
 13 18  1  0  0  0
 14 15  1  0  0  0
 15 13  1  0  0  0
 15 23  1  0  0  0
 18 17  1  0  0  0
  1  3  2  0  0  0
  2  6  2  0  0  0
  4  9  2  0  0  0
  5  8  2  0  0  0
  7 10  2  0  0  0
 11 16  2  0  0  0
 12 17  2  0  0  0
 13 19  2  0  0  0
M  END
> <rmsd>
0.458613336

$$$$
ZINC92107889


 23 25  0  0  0  0  0  0  0  0999 V2000
    6.2684   -3.1104    2.3593 C   0  0  0  0  0
    5.0010   -3.6664    2.1852 C   0  0  0  0  0
    6.5638   -1.8622    1.8112 C   0  0  0  0  0
    3.4266    5.1877    2.8870 C   0  0  0  0  0
    4.4785    5.9634    2.4481 C   0  0  0  0  0
    4.3245   -1.7259    0.9147 C   0  0  0  0  0
    3.0095    4.2446    1.9023 C   0  0  0  0  0
    4.0290   -2.9741    1.4629 C   0  0  0  0  0
    5.5918   -1.1699    1.0889 C   0  0  0  0  0
    3.7635    4.3505    0.7508 C   0  0  0  0  0
    3.2895   -0.9889    0.1448 C   0  0  0  0  0
    1.8987    3.2572    2.0190 C   0  0  0  0  0
    3.5888    3.4870   -0.4579 C   0  0  0  0  0
    2.2079    2.8194   -0.4525 C   0  0  0  0  0
   -0.4274    2.1207    0.2807 C   0  0  0  0  0
    1.0223    0.0162    0.2187 C   0  0  0  0  0
    0.7145    1.3398    0.9171 C   0  0  0  0  0
    2.1296   -0.6761    0.8363 N   0  0  0  0  0
    1.9434    2.2034    0.9137 N   0  0  0  0  0
    3.4980   -0.7196   -1.0353 O   0  0  0  0  0
    2.7969   -3.5356    1.3058 O   0  0  0  0  0
    5.9015    0.0486    0.5627 O   0  0  0  0  0
    4.9592    5.5553    0.8548 S   0  0  0  0  0
  1  2  1  0  0  0
  3  9  1  0  0  0
  4  7  1  0  0  0
  5 23  1  0  0  0
  6  8  1  0  0  0
  6 11  1  0  0  0
  8 21  1  0  0  0
  9 22  1  0  0  0
 10 23  1  0  0  0
 11 18  1  0  0  0
 12  7  1  0  0  0
 12 19  1  0  0  0
 13 10  1  0  0  0
 13 14  1  0  0  0
 14 19  1  0  0  0
 15 17  1  0  0  0
 16 17  1  0  0  0
 16 18  1  0  0  0
 17 19  1  0  0  0
  1  3  2  0  0  0
  2  8  2  0  0  0
  4  5  2  0  0  0
  6  9  2  0  0  0
  7 10  2  0  0  0
 11 20  2  0  0  0
M  CHG  1  19   1
M  END
> <rmsd>
0.500441968

$$$$
ZINC92107891


 23 25  0  0  0  0  0  0  0  0999 V2000
    6.3768   -3.1622    2.2026 C   0  0  0  0  0
    5.1138   -3.7372    2.0615 C   0  0  0  0  0
    6.6226   -1.8860    1.6958 C   0  0  0  0  0
   -0.9322    1.3148    5.3195 C   0  0  0  0  0
   -0.6828    1.9704    6.5066 C   0  0  0  0  0
    4.3426   -1.7600    0.9069 C   0  0  0  0  0
   -0.0770    1.7632    4.2705 C   0  0  0  0  0
    4.0968   -3.0362    1.4136 C   0  0  0  0  0
    5.6056   -1.1850    1.0480 C   0  0  0  0  0
    0.7844    2.7492    4.7082 C   0  0  0  0  0
    3.2596   -1.0135    0.2163 C   0  0  0  0  0
   -0.0700    1.2936    2.8555 C   0  0  0  0  0
    1.8203    3.4086    3.8543 C   0  0  0  0  0
    1.5009    3.2142    2.3667 C   0  0  0  0  0
   -0.0930    2.2293    0.0536 C   0  0  0  0  0
    0.9790   -0.0610    0.4344 C   0  0  0  0  0
    1.0808    1.4506    0.6321 C   0  0  0  0  0
    2.1266   -0.7549    0.9717 N   0  0  0  0  0
    1.1769    1.7512    2.1006 N   0  0  0  0  0
    3.4088   -0.6906   -0.9593 O   0  0  0  0  0
    2.8698   -3.6167    1.2878 O   0  0  0  0  0
    5.8673    0.0610    0.5611 O   0  0  0  0  0
    0.5767    3.1222    6.3545 S   0  0  0  0  0
  1  2  1  0  0  0
  3  9  1  0  0  0
  4  7  1  0  0  0
  5 23  1  0  0  0
  6  8  1  0  0  0
  6 11  1  0  0  0
  8 21  1  0  0  0
  9 22  1  0  0  0
 10 23  1  0  0  0
 11 18  1  0  0  0
 12  7  1  0  0  0
 12 19  1  0  0  0
 13 10  1  0  0  0
 13 14  1  0  0  0
 14 19  1  0  0  0
 15 17  1  0  0  0
 16 17  1  0  0  0
 16 18  1  0  0  0
 17 19  1  0  0  0
  1  3  2  0  0  0
  2  8  2  0  0  0
  4  5  2  0  0  0
  6  9  2  0  0  0
  7 10  2  0  0  0
 11 20  2  0  0  0
M  CHG  1  19   1
M  END
> <rmsd>
0.366152644

$$$$
ZINC92123756


 25 27  0  0  0  0  0  0  0  0999 V2000
    6.3322   -3.0084    2.3854 C   0  0  0  0  0
    0.7329    2.5896   -1.3547 C   0  0  0  0  0
    0.5139    2.5598    1.0512 C   0  0  0  0  0
    0.7786    1.1956   -1.3678 C   0  0  0  0  0
    0.5595    1.1657    1.0381 C   0  0  0  0  0
    5.1122   -3.6670    2.2321 C   0  0  0  0  0
    6.5290   -1.7591    1.7969 C   0  0  0  0  0
    1.2236    5.4474   -1.1071 C   0  0  0  0  0
   -0.1635    5.3832    0.8566 C   0  0  0  0  0
    1.1461    6.8296   -1.0509 C   0  0  0  0  0
   -0.1787    6.7683    0.8251 C   0  0  0  0  0
    0.6007    3.2717   -0.1451 C   0  0  0  0  0
    0.5535    4.7177   -0.1315 C   0  0  0  0  0
    4.2860   -1.8272    0.9019 C   0  0  0  0  0
    0.6918    0.4836   -0.1715 C   0  0  0  0  0
    4.0891   -3.0765    1.4903 C   0  0  0  0  0
    5.5060   -1.1685    1.0552 C   0  0  0  0  0
    3.1966   -1.1983    0.1113 C   0  0  0  0  0
   -0.5254   -1.6607    0.3875 C   0  0  0  0  0
    0.7408   -1.0068   -0.1854 C   0  0  0  0  0
    0.4598    7.5113   -0.1065 N   0  0  0  0  0
    1.9120   -1.5217    0.5037 N   0  0  0  0  0
    3.4854   -0.4651   -0.8309 O   0  0  0  0  0
    2.9046   -3.7373    1.3542 O   0  0  0  0  0
    5.7194    0.0531    0.4895 O   0  0  0  0  0
  1  6  1  0  0  0
  2 12  1  0  0  0
  3  5  1  0  0  0
  4 15  1  0  0  0
  7 17  1  0  0  0
  8 13  1  0  0  0
  9 11  1  0  0  0
 10 21  1  0  0  0
 12 13  1  0  0  0
 14 16  1  0  0  0
 14 18  1  0  0  0
 16 24  1  0  0  0
 17 25  1  0  0  0
 18 22  1  0  0  0
 19 20  1  0  0  0
 20 15  1  0  0  0
 20 22  1  0  0  0
  1  7  2  0  0  0
  2  4  2  0  0  0
  3 12  2  0  0  0
  5 15  2  0  0  0
  6 16  2  0  0  0
  8 10  2  0  0  0
  9 13  2  0  0  0
 11 21  2  0  0  0
 14 17  2  0  0  0
 18 23  2  0  0  0
M  END
> <rmsd>
0.340575576

$$$$
ZINC92123681


 25 27  0  0  0  0  0  0  0  0999 V2000
    6.3270   -2.9279    2.4365 C   0  0  0  0  0
   -0.1765    3.2426   -0.3571 C   0  0  0  0  0
    1.7900    3.1784    1.0450 C   0  0  0  0  0
   -0.1548    1.8510   -0.4510 C   0  0  0  0  0
    1.8116    1.7869    0.9512 C   0  0  0  0  0
    5.1267   -3.6092    2.2347 C   0  0  0  0  0
    6.5134   -1.6630    1.8787 C   0  0  0  0  0
   -0.4000    6.0728    0.4245 C   0  0  0  0  0
    1.9249    6.0929    0.6505 C   0  0  0  0  0
    0.7329    8.0283    0.6686 C   0  0  0  0  0
    0.7960    3.9063    0.3910 C   0  0  0  0  0
    0.7737    5.3496    0.4882 C   0  0  0  0  0
    4.2991   -1.7608    0.9172 C   0  0  0  0  0
    0.8392    1.1232    0.2030 C   0  0  0  0  0
    4.1128   -3.0256    1.4751 C   0  0  0  0  0
    5.4994   -1.0795    1.1191 C   0  0  0  0  0
    3.2195   -1.1394    0.1076 C   0  0  0  0  0
   -0.4177   -1.0283    0.6311 C   0  0  0  0  0
    0.8625   -0.3645    0.1025 C   0  0  0  0  0
   -0.4571    7.4179    0.5116 N   0  0  0  0  0
    1.9413    7.4388    0.7445 N   0  0  0  0  0
    2.0211   -0.9391    0.7652 N   0  0  0  0  0
    3.4350   -0.8648   -1.0700 O   0  0  0  0  0
    2.9475   -3.7088    1.2914 O   0  0  0  0  0
    5.7021    0.1577    0.5839 O   0  0  0  0  0
  1  6  1  0  0  0
  2 11  1  0  0  0
  3  5  1  0  0  0
  4 14  1  0  0  0
  7 16  1  0  0  0
  8 12  1  0  0  0
  9 21  1  0  0  0
 10 20  1  0  0  0
 11 12  1  0  0  0
 13 15  1  0  0  0
 13 17  1  0  0  0
 15 24  1  0  0  0
 16 25  1  0  0  0
 17 22  1  0  0  0
 18 19  1  0  0  0
 19 14  1  0  0  0
 19 22  1  0  0  0
  1  7  2  0  0  0
  2  4  2  0  0  0
  3 11  2  0  0  0
  5 14  2  0  0  0
  6 15  2  0  0  0
  8 20  2  0  0  0
  9 12  2  0  0  0
 10 21  2  0  0  0
 13 16  2  0  0  0
 17 23  2  0  0  0
M  END
> <rmsd>
0.277746081

$$$$
ZINC95422932


 24 25  0  0  0  0  0  0  0  0999 V2000
   -1.7380   -5.4731    0.3340 C   0  0  0  0  0
   -1.5596   -4.1505    0.7395 C   0  0  0  0  0
   -0.7281   -6.4109    0.5493 C   0  0  0  0  0
   -0.3712   -3.7656    1.3603 C   0  0  0  0  0
    0.4603   -6.0260    1.1701 C   0  0  0  0  0
    0.6388   -4.7034    1.5755 C   0  0  0  0  0
    5.3825   -3.5761    0.7858 C   0  0  0  0  0
    4.3550   -3.9592    1.8436 C   0  0  0  0  0
    2.6769   -2.4277    0.7692 C   0  0  0  0  0
    5.1538   -2.1706    0.2082 C   0  0  0  0  0
    3.7020   -2.0501   -0.2987 C   0  0  0  0  0
    0.0779    3.0879    0.5359 C   0  0  0  0  0
    4.4078   -1.0403   -4.8927 C   0  0  0  0  0
    1.9173   -4.2901    2.2431 C   0  0  0  0  0
    5.5338   -1.0895    1.2293 C   0  0  0  0  0
    0.5368    2.5078   -0.7924 C   0  0  0  0  0
    1.2022    1.1431   -0.6080 C   0  0  0  0  0
    1.6955    0.5820   -1.9439 C   0  0  0  0  0
    2.8856   -1.3720   -3.1332 C   0  0  0  0  0
    2.3518   -0.8018   -1.8172 C   0  0  0  0  0
    3.4229   -0.7390   -0.8353 N   0  0  0  0  0
    2.9655   -3.8229    1.2707 N   0  0  0  0  0
    5.7622    0.1165    0.5299 O   0  0  0  0  0
    3.8728   -0.5119   -3.6868 O   0  0  0  0  0
  1  2  1  0  0  0
  3  5  1  0  0  0
  4  6  1  0  0  0
  7  8  1  0  0  0
  7 10  1  0  0  0
  8 22  1  0  0  0
  9 11  1  0  0  0
  9 22  1  0  0  0
 10 11  1  0  0  0
 10 15  1  0  0  0
 11 21  1  0  0  0
 12 16  1  0  0  0
 13 24  1  0  0  0
 14  6  1  0  0  0
 14 22  1  0  0  0
 15 23  1  0  0  0
 16 17  1  0  0  0
 17 18  1  0  0  0
 18 20  1  0  0  0
 19 20  1  0  0  0
 19 24  1  0  0  0
 20 21  1  0  0  0
  1  3  2  0  0  0
  2  4  2  0  0  0
  5  6  2  0  0  0
M  CHG  1  22   1
M  END
> <rmsd>
0.393426418

$$$$
ZINC95422932


 24 25  0  0  0  0  0  0  0  0999 V2000
    1.6516   -8.5634    2.5035 C   0  0  0  0  0
    0.8738   -7.8718    1.5749 C   0  0  0  0  0
    2.5154   -7.8654    3.3475 C   0  0  0  0  0
    0.9600   -6.4822    1.4902 C   0  0  0  0  0
    2.6015   -6.4759    3.2628 C   0  0  0  0  0
    1.8238   -5.7841    2.3341 C   0  0  0  0  0
    5.3825   -3.5757    0.7863 C   0  0  0  0  0
    4.3549   -3.9588    1.8440 C   0  0  0  0  0
    2.6769   -2.4272    0.7695 C   0  0  0  0  0
    5.1539   -2.1702    0.2087 C   0  0  0  0  0
    3.7021   -2.0497   -0.2984 C   0  0  0  0  0
    0.0782    3.0885    0.5357 C   0  0  0  0  0
    4.4084   -1.0402   -4.8923 C   0  0  0  0  0
    1.9172   -4.2895    2.2433 C   0  0  0  0  0
    5.5339   -1.0891    1.2298 C   0  0  0  0  0
    0.5372    2.5083   -0.7926 C   0  0  0  0  0
    1.2026    1.1436   -0.6081 C   0  0  0  0  0
    1.6960    0.5824   -1.9439 C   0  0  0  0  0
    2.8861   -1.3717   -3.1330 C   0  0  0  0  0
    2.3522   -0.8014   -1.8170 C   0  0  0  0  0
    3.4232   -0.7386   -0.8351 N   0  0  0  0  0
    2.9655   -3.8224    1.2710 N   0  0  0  0  0
    5.7624    0.1169    0.5304 O   0  0  0  0  0
    3.8734   -0.5116   -3.6865 O   0  0  0  0  0
  1  2  1  0  0  0
  3  5  1  0  0  0
  4  6  1  0  0  0
  7  8  1  0  0  0
  7 10  1  0  0  0
  8 22  1  0  0  0
  9 11  1  0  0  0
  9 22  1  0  0  0
 10 11  1  0  0  0
 10 15  1  0  0  0
 11 21  1  0  0  0
 12 16  1  0  0  0
 13 24  1  0  0  0
 14  6  1  0  0  0
 14 22  1  0  0  0
 15 23  1  0  0  0
 16 17  1  0  0  0
 17 18  1  0  0  0
 18 20  1  0  0  0
 19 20  1  0  0  0
 19 24  1  0  0  0
 20 21  1  0  0  0
  1  3  2  0  0  0
  2  4  2  0  0  0
  5  6  2  0  0  0
M  CHG  1  22   1
M  END
> <rmsd>
0.393386096

$$$$
ZINC92123803


 23 24  0  0  0  0  0  0  0  0999 V2000
    6.3264   -2.8749    2.4560 C   0  0  0  0  0
   -1.8547    1.8791    1.3573 C   0  0  0  0  0
   -1.6039    0.8333   -0.8062 C   0  0  0  0  0
    5.1438   -3.5845    2.2475 C   0  0  0  0  0
    6.4875   -1.6078    1.8954 C   0  0  0  0  0
   -3.1746    2.2055    1.0466 C   0  0  0  0  0
   -2.9239    1.1597   -1.1170 C   0  0  0  0  0
    4.2835   -1.7600    0.9177 C   0  0  0  0  0
   -1.0692    1.1931    0.4308 C   0  0  0  0  0
    4.1224   -3.0272    1.4783 C   0  0  0  0  0
    5.4661   -1.0504    1.1262 C   0  0  0  0  0
   -3.7094    1.8458   -0.1905 C   0  0  0  0  0
    3.1959   -1.1665    0.0979 C   0  0  0  0  0
    1.0293    2.5195   -0.9428 C   0  0  0  0  0
    1.4070    2.9845    1.4742 C   0  0  0  0  0
    0.8214   -0.4475    0.0722 C   0  0  0  0  0
    0.3619    0.8375    0.7680 C   0  0  0  0  0
    2.0114   -1.0034    0.7591 N   0  0  0  0  0
    1.3265    1.9308    0.4067 N   0  0  0  0  0
    3.4139   -0.8905   -1.0788 O   0  0  0  0  0
    2.9746   -3.7377    1.2881 O   0  0  0  0  0
    5.6441    0.1894    0.5886 O   0  0  0  0  0
   -5.3379    2.2484   -0.5735 Cl  0  0  0  0  0
  1  4  1  0  0  0
  2  9  1  0  0  0
  3  7  1  0  0  0
  5 11  1  0  0  0
  6 12  1  0  0  0
  8 10  1  0  0  0
  8 13  1  0  0  0
 10 21  1  0  0  0
 11 22  1  0  0  0
 12 23  1  0  0  0
 13 18  1  0  0  0
 14 19  1  0  0  0
 15 19  1  0  0  0
 16 17  1  0  0  0
 16 18  1  0  0  0
 17  9  1  0  0  0
 17 19  1  0  0  0
  1  5  2  0  0  0
  2  6  2  0  0  0
  3  9  2  0  0  0
  4 10  2  0  0  0
  7 12  2  0  0  0
  8 11  2  0  0  0
 13 20  2  0  0  0
M  CHG  1  19   1
M  END
> <rmsd>
0.410365134

$$$$
ZINC92123803


 23 24  0  0  0  0  0  0  0  0999 V2000
    6.3972   -3.1614    2.2194 C   0  0  0  0  0
    1.9113    2.9018    2.4928 C   0  0  0  0  0
    0.5563    0.9794    3.0455 C   0  0  0  0  0
    5.1391   -3.7458    2.0740 C   0  0  0  0  0
    6.6368   -1.8854    1.7095 C   0  0  0  0  0
    1.9846    3.2388    3.8442 C   0  0  0  0  0
    0.6297    1.3163    4.3971 C   0  0  0  0  0
    4.3600   -1.7780    0.9086 C   0  0  0  0  0
    1.1970    1.7722    2.0933 C   0  0  0  0  0
    4.1204   -3.0541    1.4185 C   0  0  0  0  0
    5.6182   -1.1937    1.0540 C   0  0  0  0  0
    1.3439    2.4460    4.7965 C   0  0  0  0  0
    3.2754   -1.0415    0.2098 C   0  0  0  0  0
   -1.2870    2.0382    0.7484 C   0  0  0  0  0
    0.3158    3.4709   -0.5080 C   0  0  0  0  0
    0.9865   -0.1054    0.4126 C   0  0  0  0  0
    1.1186    1.4055    0.6279 C   0  0  0  0  0
    2.1663   -0.8066    0.9725 N   0  0  0  0  0
   -0.0294    2.0756   -0.0719 N   0  0  0  0  0
    3.4283   -0.7216   -0.9661 O   0  0  0  0  0
    2.8982   -3.6436    1.2885 O   0  0  0  0  0
    5.8736    0.0524    0.5640 O   0  0  0  0  0
    1.4347    2.8618    6.4637 Cl  0  0  0  0  0
  1  4  1  0  0  0
  2  9  1  0  0  0
  3  7  1  0  0  0
  5 11  1  0  0  0
  6 12  1  0  0  0
  8 10  1  0  0  0
  8 13  1  0  0  0
 10 21  1  0  0  0
 11 22  1  0  0  0
 12 23  1  0  0  0
 13 18  1  0  0  0
 14 19  1  0  0  0
 15 19  1  0  0  0
 16 17  1  0  0  0
 16 18  1  0  0  0
 17  9  1  0  0  0
 17 19  1  0  0  0
  1  5  2  0  0  0
  2  6  2  0  0  0
  3  9  2  0  0  0
  4 10  2  0  0  0
  7 12  2  0  0  0
  8 11  2  0  0  0
 13 20  2  0  0  0
M  CHG  1  19   1
M  END
> <rmsd>
0.468782187

$$$$
ZINC92124893


 25 27  0  0  0  0  0  0  0  0999 V2000
    1.4458    3.1337    1.3955 C   0  0  0  0  0
    0.8683    3.9098    0.3906 C   0  0  0  0  0
    6.3317   -2.9260    2.4317 C   0  0  0  0  0
    1.4371    1.7425    1.2941 C   0  0  0  0  0
    0.2820    3.2947   -0.7156 C   0  0  0  0  0
    5.1328   -3.6100    2.2306 C   0  0  0  0  0
    6.5141   -1.6599    1.8754 C   0  0  0  0  0
   -0.8055    0.7138   -3.9652 C   0  0  0  0  0
    4.2987   -1.7619    0.9169 C   0  0  0  0  0
    0.8509    1.1274    0.1880 C   0  0  0  0  0
    0.2733    1.9035   -0.8169 C   0  0  0  0  0
    4.1164   -3.0280    1.4732 C   0  0  0  0  0
    5.4976   -1.0779    1.1179 C   0  0  0  0  0
   -1.6441    0.1075   -3.0109 C   0  0  0  0  0
    0.0496    1.4933   -3.2251 C   0  0  0  0  0
    3.2362   -1.1534    0.1243 C   0  0  0  0  0
   -2.7510   -0.8318   -3.2577 C   0  0  0  0  0
    1.1559    2.3734   -3.6495 C   0  0  0  0  0
    0.8579   -0.3719    0.1092 C   0  0  0  0  0
   -1.3487    0.4705   -1.7599 N   0  0  0  0  0
   -0.3147    1.3133   -1.9231 N   0  0  0  0  0
    2.0122   -0.9425    0.7656 N   0  0  0  0  0
    3.4297   -0.8653   -1.0679 O   0  0  0  0  0
    2.9525   -3.7138    1.2901 O   0  0  0  0  0
    5.6966    0.1605    0.5842 O   0  0  0  0  0
  1  2  1  0  0  0
  3  6  1  0  0  0
  4 10  1  0  0  0
  5 11  1  0  0  0
  7 13  1  0  0  0
  8 14  1  0  0  0
  9 12  1  0  0  0
  9 16  1  0  0  0
 11 21  1  0  0  0
 12 24  1  0  0  0
 13 25  1  0  0  0
 15 21  1  0  0  0
 16 22  1  0  0  0
 17 14  1  0  0  0
 18 15  1  0  0  0
 19 10  1  0  0  0
 19 22  1  0  0  0
 21 20  1  0  0  0
  1  4  2  0  0  0
  2  5  2  0  0  0
  3  7  2  0  0  0
  6 12  2  0  0  0
  8 15  2  0  0  0
  9 13  2  0  0  0
 10 11  2  0  0  0
 14 20  2  0  0  0
 16 23  2  0  0  0
M  END
> <rmsd>
0.287442952

$$$$
ZINC92124893


 25 27  0  0  0  0  0  0  0  0999 V2000
    1.1880    3.2606   -0.8705 C   0  0  0  0  0
    0.8590    3.9182    0.3148 C   0  0  0  0  0
    6.3423   -2.9359    2.4149 C   0  0  0  0  0
    1.1843    1.8665   -0.9188 C   0  0  0  0  0
    0.5264    3.1818    1.4518 C   0  0  0  0  0
    5.1419   -3.6184    2.2175 C   0  0  0  0  0
    6.5224   -1.6676    1.8629 C   0  0  0  0  0
    0.1603    0.2590    4.5693 C   0  0  0  0  0
    4.3018   -1.7643    0.9161 C   0  0  0  0  0
    0.8517    1.1301    0.2181 C   0  0  0  0  0
    0.5228    1.7877    1.4035 C   0  0  0  0  0
    4.1216   -3.0326    1.4681 C   0  0  0  0  0
    5.5022   -1.0818    1.1135 C   0  0  0  0  0
   -0.8796   -0.2504    3.7688 C   0  0  0  0  0
    0.8396    1.1201    3.7426 C   0  0  0  0  0
    3.2353   -1.1519    0.1320 C   0  0  0  0  0
   -1.9146   -1.2237    4.1560 C   0  0  0  0  0
    2.0274    1.9584    3.9976 C   0  0  0  0  0
    0.8574   -0.3689    0.1331 C   0  0  0  0  0
   -0.8662    0.2458    2.5288 N   0  0  0  0  0
    0.1904    1.0761    2.5440 N   0  0  0  0  0
    2.0149   -0.9429    0.7807 N   0  0  0  0  0
    3.4224   -0.8589   -1.0601 O   0  0  0  0  0
    2.9564   -3.7169    1.2887 O   0  0  0  0  0
    5.6989    0.1587    0.5839 O   0  0  0  0  0
  1  2  1  0  0  0
  3  6  1  0  0  0
  4 10  1  0  0  0
  5 11  1  0  0  0
  7 13  1  0  0  0
  8 14  1  0  0  0
  9 12  1  0  0  0
  9 16  1  0  0  0
 11 21  1  0  0  0
 12 24  1  0  0  0
 13 25  1  0  0  0
 15 21  1  0  0  0
 16 22  1  0  0  0
 17 14  1  0  0  0
 18 15  1  0  0  0
 19 10  1  0  0  0
 19 22  1  0  0  0
 21 20  1  0  0  0
  1  4  2  0  0  0
  2  5  2  0  0  0
  3  7  2  0  0  0
  6 12  2  0  0  0
  8 15  2  0  0  0
  9 13  2  0  0  0
 10 11  2  0  0  0
 14 20  2  0  0  0
 16 23  2  0  0  0
M  END
> <rmsd>
0.285175085

$$$$
ZINC92124893


 25 27  0  0  0  0  0  0  0  0999 V2000
    1.1878    3.2604   -0.8700 C   0  0  0  0  0
    0.8589    3.9179    0.3153 C   0  0  0  0  0
    6.3426   -2.9361    2.4147 C   0  0  0  0  0
    1.1841    1.8662   -0.9184 C   0  0  0  0  0
    0.5264    3.1815    1.4523 C   0  0  0  0  0
    5.1423   -3.6186    2.2175 C   0  0  0  0  0
    6.5226   -1.6677    1.8628 C   0  0  0  0  0
   -0.9057    0.0045    4.1006 C   0  0  0  0  0
    4.3020   -1.7645    0.9162 C   0  0  0  0  0
    0.8517    1.1298    0.2186 C   0  0  0  0  0
    0.5229    1.7874    1.4040 C   0  0  0  0  0
    4.1219   -3.0328    1.4682 C   0  0  0  0  0
    5.5023   -1.0819    1.1135 C   0  0  0  0  0
    0.4766    0.0632    4.3605 C   0  0  0  0  0
   -1.0601    0.6732    2.9108 C   0  0  0  0  0
    3.2354   -1.1520    0.1322 C   0  0  0  0  0
    1.1961   -0.4973    5.5165 C   0  0  0  0  0
   -2.2730    0.9521    2.1172 C   0  0  0  0  0
    0.8575   -0.3691    0.1335 C   0  0  0  0  0
    1.1523    0.7173    3.4120 N   0  0  0  0  0
    0.1906    1.0757    2.5445 N   0  0  0  0  0
    2.0150   -0.9432    0.7810 N   0  0  0  0  0
    3.4224   -0.8590   -1.0599 O   0  0  0  0  0
    2.9567   -3.7172    1.2888 O   0  0  0  0  0
    5.6990    0.1586    0.5839 O   0  0  0  0  0
  1  2  1  0  0  0
  3  6  1  0  0  0
  4 10  1  0  0  0
  5 11  1  0  0  0
  7 13  1  0  0  0
  8 14  1  0  0  0
  9 12  1  0  0  0
  9 16  1  0  0  0
 11 21  1  0  0  0
 12 24  1  0  0  0
 13 25  1  0  0  0
 15 21  1  0  0  0
 16 22  1  0  0  0
 17 14  1  0  0  0
 18 15  1  0  0  0
 19 10  1  0  0  0
 19 22  1  0  0  0
 21 20  1  0  0  0
  1  4  2  0  0  0
  2  5  2  0  0  0
  3  7  2  0  0  0
  6 12  2  0  0  0
  8 15  2  0  0  0
  9 13  2  0  0  0
 10 11  2  0  0  0
 14 20  2  0  0  0
 16 23  2  0  0  0
M  END
> <rmsd>
0.285140008

$$$$
ZINC92124160


 25 27  0  0  0  0  0  0  0  0999 V2000
    6.3336   -2.9252    2.4310 C   0  0  0  0  0
    0.9700    1.9040   -0.9566 C   0  0  0  0  0
    0.7603    1.7583    1.4459 C   0  0  0  0  0
    0.9752    3.2962   -0.8717 C   0  0  0  0  0
    0.7654    3.1506    1.5307 C   0  0  0  0  0
    5.1354   -3.6103    2.2301 C   0  0  0  0  0
    6.5147   -1.6588    1.8750 C   0  0  0  0  0
    0.3170    7.3617    0.8487 C   0  0  0  0  0
   -0.1274    6.0667    0.9751 C   0  0  0  0  0
    4.2992   -1.7627    0.9169 C   0  0  0  0  0
    0.8625    1.1350    0.2023 C   0  0  0  0  0
    0.8729    3.9196    0.3719 C   0  0  0  0  0
    4.1182   -3.0291    1.4731 C   0  0  0  0  0
    5.4975   -1.0775    1.1179 C   0  0  0  0  0
    1.8696    6.1466    0.0465 C   0  0  0  0  0
    3.2360   -1.1550    0.1248 C   0  0  0  0  0
    3.1245    5.6650   -0.5701 C   0  0  0  0  0
   -0.4298   -0.9897    0.6582 C   0  0  0  0  0
    0.8570   -0.3757    0.1103 C   0  0  0  0  0
    1.5606    7.4047    0.2697 N   0  0  0  0  0
    0.8777    5.2997    0.4566 N   0  0  0  0  0
    2.0119   -0.9454    0.7663 N   0  0  0  0  0
    3.4289   -0.8664   -1.0675 O   0  0  0  0  0
    2.9549   -3.7159    1.2902 O   0  0  0  0  0
    5.6951    0.1610    0.5844 O   0  0  0  0  0
  1  6  1  0  0  0
  2 11  1  0  0  0
  3  5  1  0  0  0
  4 12  1  0  0  0
  7 14  1  0  0  0
  8 20  1  0  0  0
  9 21  1  0  0  0
 10 13  1  0  0  0
 10 16  1  0  0  0
 12 21  1  0  0  0
 13 24  1  0  0  0
 14 25  1  0  0  0
 15 21  1  0  0  0
 16 22  1  0  0  0
 17 15  1  0  0  0
 18 19  1  0  0  0
 19 11  1  0  0  0
 19 22  1  0  0  0
  1  7  2  0  0  0
  2  4  2  0  0  0
  3 11  2  0  0  0
  5 12  2  0  0  0
  6 13  2  0  0  0
  8  9  2  0  0  0
 10 14  2  0  0  0
 15 20  2  0  0  0
 16 23  2  0  0  0
M  END
> <rmsd>
0.29077971

$$$$
ZINC92124160


 25 27  0  0  0  0  0  0  0  0999 V2000
    6.3339   -2.9250    2.4314 C   0  0  0  0  0
    0.9703    1.9041   -0.9561 C   0  0  0  0  0
    0.7606    1.7584    1.4463 C   0  0  0  0  0
    0.9755    3.2963   -0.8713 C   0  0  0  0  0
    0.7657    3.1508    1.5312 C   0  0  0  0  0
    5.1357   -3.6101    2.2305 C   0  0  0  0  0
    6.5150   -1.6586    1.8754 C   0  0  0  0  0
    1.4527    7.3905    0.3200 C   0  0  0  0  0
    1.8883    6.1177    0.0358 C   0  0  0  0  0
    4.2995   -1.7625    0.9173 C   0  0  0  0  0
    0.8628    1.1351    0.2027 C   0  0  0  0  0
    0.8731    3.9197    0.3723 C   0  0  0  0  0
    4.1184   -3.0290    1.4735 C   0  0  0  0  0
    5.4978   -1.0774    1.1183 C   0  0  0  0  0
   -0.1084    6.0968    0.9681 C   0  0  0  0  0
    3.2362   -1.1549    0.1252 C   0  0  0  0  0
   -1.3669    5.5520    1.5217 C   0  0  0  0  0
   -0.4295   -0.9896    0.6586 C   0  0  0  0  0
    0.8573   -0.3756    0.1107 C   0  0  0  0  0
    0.2092    7.3707    0.9004 N   0  0  0  0  0
    0.8780    5.2999    0.4570 N   0  0  0  0  0
    2.0122   -0.9452    0.7668 N   0  0  0  0  0
    3.4292   -0.8663   -1.0671 O   0  0  0  0  0
    2.9552   -3.7157    1.2906 O   0  0  0  0  0
    5.6954    0.1612    0.5848 O   0  0  0  0  0
  1  6  1  0  0  0
  2 11  1  0  0  0
  3  5  1  0  0  0
  4 12  1  0  0  0
  7 14  1  0  0  0
  8 20  1  0  0  0
  9 21  1  0  0  0
 10 13  1  0  0  0
 10 16  1  0  0  0
 12 21  1  0  0  0
 13 24  1  0  0  0
 14 25  1  0  0  0
 15 21  1  0  0  0
 16 22  1  0  0  0
 17 15  1  0  0  0
 18 19  1  0  0  0
 19 11  1  0  0  0
 19 22  1  0  0  0
  1  7  2  0  0  0
  2  4  2  0  0  0
  3 11  2  0  0  0
  5 12  2  0  0  0
  6 13  2  0  0  0
  8  9  2  0  0  0
 10 14  2  0  0  0
 15 20  2  0  0  0
 16 23  2  0  0  0
M  END
> <rmsd>
0.290779769

$$$$
ZINC67724648


 25 27  0  0  0  0  0  0  0  0999 V2000
    0.9793    3.9059    0.3784 C   0  0  0  0  0
    0.4363    3.2948   -0.7517 C   0  0  0  0  0
    1.4807    3.1256    1.4203 C   0  0  0  0  0
    6.3329   -2.9171    2.4345 C   0  0  0  0  0
    0.3945    1.9034   -0.8400 C   0  0  0  0  0
    1.4390    1.7341    1.3320 C   0  0  0  0  0
    5.1371   -3.6060    2.2330 C   0  0  0  0  0
    6.5105   -1.6503    1.8780 C   0  0  0  0  0
   -1.1399   -3.1293   -2.9969 C   0  0  0  0  0
    0.3099   -3.8097   -1.6581 C   0  0  0  0  0
    4.2961   -1.7617    0.9182 C   0  0  0  0  0
    0.8958    1.1229    0.2019 C   0  0  0  0  0
    4.1186   -3.0285    1.4748 C   0  0  0  0  0
    5.4920   -1.0728    1.1198 C   0  0  0  0  0
    3.2122   -1.1465    0.1096 C   0  0  0  0  0
   -0.4296   -1.0402    0.6705 C   0  0  0  0  0
   -0.5426   -2.5538    0.4242 C   0  0  0  0  0
    0.8502   -0.3869    0.1061 C   0  0  0  0  0
   -0.0355   -3.9286   -2.9190 N   0  0  0  0  0
   -1.4995   -2.5233   -1.8634 N   0  0  0  0  0
   -0.5563   -2.9752   -1.0231 N   0  0  0  0  0
    2.0093   -0.9530    0.7658 N   0  0  0  0  0
    3.4256   -0.8691   -1.0678 O   0  0  0  0  0
    2.9582   -3.7196    1.2899 O   0  0  0  0  0
    5.6867    0.1659    0.5854 O   0  0  0  0  0
  1  2  1  0  0  0
  3  6  1  0  0  0
  4  7  1  0  0  0
  5 12  1  0  0  0
  8 14  1  0  0  0
  9 19  1  0  0  0
 10 21  1  0  0  0
 11 13  1  0  0  0
 11 15  1  0  0  0
 13 24  1  0  0  0
 14 25  1  0  0  0
 15 22  1  0  0  0
 16 17  1  0  0  0
 16 18  1  0  0  0
 17 21  1  0  0  0
 18 12  1  0  0  0
 18 22  1  0  0  0
 21 20  1  0  0  0
  1  3  2  0  0  0
  2  5  2  0  0  0
  4  8  2  0  0  0
  6 12  2  0  0  0
  7 13  2  0  0  0
  9 20  2  0  0  0
 10 19  2  0  0  0
 11 14  2  0  0  0
 15 23  2  0  0  0
M  END
> <rmsd>
0.306946069

$$$$
ZINC67724648


 25 27  0  0  0  0  0  0  0  0999 V2000
    0.9793    3.9056    0.3780 C   0  0  0  0  0
    0.4362    3.2944   -0.7521 C   0  0  0  0  0
    1.4808    3.1253    1.4198 C   0  0  0  0  0
    6.3332   -2.9173    2.4340 C   0  0  0  0  0
    0.3944    1.9030   -0.8403 C   0  0  0  0  0
    1.4391    1.7338    1.3316 C   0  0  0  0  0
    5.1373   -3.6062    2.2325 C   0  0  0  0  0
    6.5107   -1.6505    1.8774 C   0  0  0  0  0
   -3.7547   -3.7876    1.1676 C   0  0  0  0  0
   -1.8926   -3.9830    2.0902 C   0  0  0  0  0
    4.2962   -1.7620    0.9177 C   0  0  0  0  0
    0.8959    1.1226    0.2016 C   0  0  0  0  0
    4.1188   -3.0287    1.4744 C   0  0  0  0  0
    5.4922   -1.0730    1.1193 C   0  0  0  0  0
    3.2123   -1.1468    0.1092 C   0  0  0  0  0
   -0.4295   -1.0405    0.6703 C   0  0  0  0  0
   -0.5425   -2.5541    0.4241 C   0  0  0  0  0
    0.8503   -0.3872    0.1058 C   0  0  0  0  0
   -3.1388   -4.3678    2.2393 N   0  0  0  0  0
   -2.9679   -3.0680    0.3647 N   0  0  0  0  0
   -1.7825   -3.2093    0.9771 N   0  0  0  0  0
    2.0095   -0.9533    0.7655 N   0  0  0  0  0
    3.4256   -0.8694   -1.0682 O   0  0  0  0  0
    2.9584   -3.7198    1.2896 O   0  0  0  0  0
    5.6868    0.1657    0.5848 O   0  0  0  0  0
  1  2  1  0  0  0
  3  6  1  0  0  0
  4  7  1  0  0  0
  5 12  1  0  0  0
  8 14  1  0  0  0
  9 19  1  0  0  0
 10 21  1  0  0  0
 11 13  1  0  0  0
 11 15  1  0  0  0
 13 24  1  0  0  0
 14 25  1  0  0  0
 15 22  1  0  0  0
 16 17  1  0  0  0
 16 18  1  0  0  0
 17 21  1  0  0  0
 18 12  1  0  0  0
 18 22  1  0  0  0
 21 20  1  0  0  0
  1  3  2  0  0  0
  2  5  2  0  0  0
  4  8  2  0  0  0
  6 12  2  0  0  0
  7 13  2  0  0  0
  9 20  2  0  0  0
 10 19  2  0  0  0
 11 14  2  0  0  0
 15 23  2  0  0  0
M  END
> <rmsd>
0.306846261

$$$$
ZINC92123632


 25 27  0  0  0  0  0  0  0  0999 V2000
   -0.1244    1.8635    3.7513 C   0  0  0  0  0
   -0.1048    3.2577    3.7325 C   0  0  0  0  0
    6.3481   -2.9428    2.4043 C   0  0  0  0  0
    0.1899    1.1402    2.5988 C   0  0  0  0  0
    0.2290    3.9377    2.5620 C   0  0  0  0  0
    5.1465   -3.6237    2.2095 C   0  0  0  0  0
    6.5274   -1.6732    1.8551 C   0  0  0  0  0
    1.1791    1.8410   -0.9195 C   0  0  0  0  0
    0.5283    1.8077    1.4112 C   0  0  0  0  0
    4.3032   -1.7654    0.9161 C   0  0  0  0  0
    0.8513    1.1284    0.2288 C   0  0  0  0  0
    0.5448    3.2201    1.4042 C   0  0  0  0  0
    4.1240   -3.0350    1.4654 C   0  0  0  0  0
    5.5050   -1.0845    1.1109 C   0  0  0  0  0
    1.1794    3.2251   -0.8696 C   0  0  0  0  0
    3.2146   -1.1385    0.1230 C   0  0  0  0  0
    2.4233    3.4870   -3.0013 C   0  0  0  0  0
    0.9082    5.3050   -2.1965 C   0  0  0  0  0
    0.8571   -0.3656    0.1491 C   0  0  0  0  0
    0.8690    3.8633    0.2666 N   0  0  0  0  0
    2.0118   -0.9390    0.7887 N   0  0  0  0  0
    1.5010    3.9927   -1.9982 N   0  0  0  0  0
    3.4176   -0.8540   -1.0545 O   0  0  0  0  0
    2.9575   -3.7177    1.2884 O   0  0  0  0  0
    5.7010    0.1572    0.5839 O   0  0  0  0  0
  1  2  1  0  0  0
  3  6  1  0  0  0
  4  9  1  0  0  0
  5 12  1  0  0  0
  7 14  1  0  0  0
  8 15  1  0  0  0
  9 11  1  0  0  0
 10 13  1  0  0  0
 10 16  1  0  0  0
 12 20  1  0  0  0
 13 24  1  0  0  0
 14 25  1  0  0  0
 15 22  1  0  0  0
 16 21  1  0  0  0
 17 22  1  0  0  0
 18 22  1  0  0  0
 19 11  1  0  0  0
 19 21  1  0  0  0
  1  4  2  0  0  0
  2  5  2  0  0  0
  3  7  2  0  0  0
  6 13  2  0  0  0
  8 11  2  0  0  0
  9 12  2  0  0  0
 10 14  2  0  0  0
 15 20  2  0  0  0
 16 23  2  0  0  0
M  CHG  1  20   1
M  END
> <rmsd>
0.282758981

$$$$
ZINC92124241


 25 27  0  0  0  0  0  0  0  0999 V2000
    0.7253    3.8825    5.4734 C   0  0  0  0  0
    1.5403    3.0261    4.7332 C   0  0  0  0  0
   -0.6625    3.7926    5.3638 C   0  0  0  0  0
    6.3226   -2.9438    2.4131 C   0  0  0  0  0
    0.9677    2.0800    3.8832 C   0  0  0  0  0
   -1.2350    2.8463    4.5137 C   0  0  0  0  0
    5.1149   -3.6137    2.2172 C   0  0  0  0  0
    6.5154   -1.6777    1.8605 C   0  0  0  0  0
    0.3127    3.2749    0.6618 C   0  0  0  0  0
    1.5061    3.2882   -0.0035 C   0  0  0  0  0
    4.2929   -1.7514    0.9161 C   0  0  0  0  0
   -0.4200    1.9900    3.7735 C   0  0  0  0  0
    4.1000   -3.0175    1.4688 C   0  0  0  0  0
    5.5005   -1.0814    1.1121 C   0  0  0  0  0
    0.8727    1.1790    0.2210 C   0  0  0  0  0
    3.2320   -1.1280    0.1330 C   0  0  0  0  0
   -1.0399    0.9670    2.8540 C   0  0  0  0  0
    0.8626   -0.3200    0.1364 C   0  0  0  0  0
   -1.2667    1.4870    1.4305 C   0  0  0  0  0
   -0.0560    1.9570    0.7864 N   0  0  0  0  0
    1.8288    1.9781   -0.2634 N   0  0  0  0  0
    2.0146   -0.9060    0.7831 N   0  0  0  0  0
    3.4210   -0.8373   -1.0593 O   0  0  0  0  0
    2.9275   -3.6895    1.2908 O   0  0  0  0  0
    5.7098    0.1567    0.5818 O   0  0  0  0  0
  1  2  1  0  0  0
  3  6  1  0  0  0
  4  7  1  0  0  0
  5 12  1  0  0  0
  8 14  1  0  0  0
  9 20  1  0  0  0
 10 21  1  0  0  0
 11 13  1  0  0  0
 11 16  1  0  0  0
 13 24  1  0  0  0
 14 25  1  0  0  0
 15 20  1  0  0  0
 16 22  1  0  0  0
 17 12  1  0  0  0
 17 19  1  0  0  0
 18 15  1  0  0  0
 18 22  1  0  0  0
 19 20  1  0  0  0
  1  3  2  0  0  0
  2  5  2  0  0  0
  4  8  2  0  0  0
  6 12  2  0  0  0
  7 13  2  0  0  0
  9 10  2  0  0  0
 11 14  2  0  0  0
 15 21  2  0  0  0
 16 23  2  0  0  0
M  CHG  1  21   1
M  END
> <rmsd>
0.268942147

$$$$
ZINC92119875


 25 27  0  0  0  0  0  0  0  0999 V2000
    6.3272   -2.9519    2.3997 C   0  0  0  0  0
    1.2672    5.5576   -0.7598 C   0  0  0  0  0
    1.7288    4.0140   -2.5601 C   0  0  0  0  0
    5.1174   -3.6188    2.2071 C   0  0  0  0  0
    6.5201   -1.6843    1.8504 C   0  0  0  0  0
    1.5316    6.6301   -1.6117 C   0  0  0  0  0
    1.9931    5.0863   -3.4120 C   0  0  0  0  0
    0.5829    1.9830    1.3695 C   0  0  0  0  0
    0.7392    3.2742    0.9279 C   0  0  0  0  0
    4.2933   -1.7507    0.9156 C   0  0  0  0  0
    1.3659    4.2495   -1.2341 C   0  0  0  0  0
    1.8945    6.3945   -2.9377 C   0  0  0  0  0
    4.1004   -3.0182    1.4649 C   0  0  0  0  0
    5.5031   -1.0837    1.1083 C   0  0  0  0  0
    0.8759    1.1885    0.2449 C   0  0  0  0  0
    3.2303   -1.1227    0.1390 C   0  0  0  0  0
    2.0316    8.7518   -3.2205 C   0  0  0  0  0
    0.8625   -0.3101    0.1555 C   0  0  0  0  0
    1.1940    1.9143   -0.8303 N   0  0  0  0  0
    1.1017    3.1783   -0.3834 N   0  0  0  0  0
    2.0162   -0.9004    0.7951 N   0  0  0  0  0
    3.4145   -0.8286   -1.0532 O   0  0  0  0  0
    2.9257   -3.6874    1.2899 O   0  0  0  0  0
    5.7126    0.1558    0.5812 O   0  0  0  0  0
    2.1518    7.4404   -3.7697 O   0  0  0  0  0
  1  4  1  0  0  0
  2 11  1  0  0  0
  3  7  1  0  0  0
  5 14  1  0  0  0
  6 12  1  0  0  0
  8 15  1  0  0  0
  9 20  1  0  0  0
 10 13  1  0  0  0
 10 16  1  0  0  0
 11 20  1  0  0  0
 12 25  1  0  0  0
 13 23  1  0  0  0
 14 24  1  0  0  0
 16 21  1  0  0  0
 17 25  1  0  0  0
 18 15  1  0  0  0
 18 21  1  0  0  0
 20 19  1  0  0  0
  1  5  2  0  0  0
  2  6  2  0  0  0
  3 11  2  0  0  0
  4 13  2  0  0  0
  7 12  2  0  0  0
  8  9  2  0  0  0
 10 14  2  0  0  0
 15 19  2  0  0  0
 16 22  2  0  0  0
M  END
> <rmsd>
0.267597884

$$$$
ZINC92126540


 25 27  0  0  0  0  0  0  0  0999 V2000
   -0.9359    2.0404    8.0250 C   0  0  0  0  0
   -1.6076    1.4999    6.9286 C   0  0  0  0  0
    0.3319    2.5984    7.8604 C   0  0  0  0  0
    6.3948   -3.1784    2.1657 C   0  0  0  0  0
   -1.0116    1.5173    5.6675 C   0  0  0  0  0
    0.9279    2.6159    6.5995 C   0  0  0  0  0
    5.1305   -3.7524    2.0326 C   0  0  0  0  0
    6.6351   -1.8976    1.6682 C   0  0  0  0  0
    0.2562    2.0753    5.5030 C   0  0  0  0  0
    4.3468   -1.7649    0.9045 C   0  0  0  0  0
    4.1065   -3.0457    1.4021 C   0  0  0  0  0
    5.6112   -1.1908    1.0377 C   0  0  0  0  0
    0.8695    2.0933    4.2062 C   0  0  0  0  0
    1.1326    1.7954    2.1761 C   0  0  0  0  0
    3.2566   -1.0122    0.2323 C   0  0  0  0  0
   -0.0625    2.2263    0.0059 C   0  0  0  0  0
    0.9780   -0.0628    0.4830 C   0  0  0  0  0
    1.0765    1.4616    0.6927 C   0  0  0  0  0
    0.2433    1.5740    3.1107 N   0  0  0  0  0
    2.0809    2.6145    3.9903 N   0  0  0  0  0
    2.1436   -0.7686    1.0074 N   0  0  0  0  0
    3.3934   -0.6784   -0.9417 O   0  0  0  0  0
    2.2602    2.4132    2.6160 O   0  0  0  0  0
    2.8784   -3.6253    1.2838 O   0  0  0  0  0
    5.8675    0.0596    0.5597 O   0  0  0  0  0
  1  2  1  0  0  0
  3  6  1  0  0  0
  4  7  1  0  0  0
  5  9  1  0  0  0
  8 12  1  0  0  0
  9 13  1  0  0  0
 10 11  1  0  0  0
 10 15  1  0  0  0
 11 24  1  0  0  0
 12 25  1  0  0  0
 13 19  1  0  0  0
 14 23  1  0  0  0
 15 21  1  0  0  0
 16 18  1  0  0  0
 17 18  1  0  0  0
 17 21  1  0  0  0
 18 14  1  0  0  0
 20 23  1  0  0  0
  1  3  2  0  0  0
  2  5  2  0  0  0
  4  8  2  0  0  0
  6  9  2  0  0  0
  7 11  2  0  0  0
 10 12  2  0  0  0
 13 20  2  0  0  0
 14 19  2  0  0  0
 15 22  2  0  0  0
M  END
> <rmsd>
0.360921502

$$$$
ZINC92121694


 20 21  0  0  0  0  0  0  0  0999 V2000
    6.3374   -2.9315    2.4236 C   0  0  0  0  0
    1.1846    1.8894   -0.9185 C   0  0  0  0  0
    5.1375   -3.6142    2.2244 C   0  0  0  0  0
    6.5192   -1.6644    1.8693 C   0  0  0  0  0
    1.1801    3.2823   -0.8448 C   0  0  0  0  0
    0.5126    3.1572    1.4738 C   0  0  0  0  0
    4.3010   -1.7628    0.9170 C   0  0  0  0  0
    0.8531    1.1304    0.2039 C   0  0  0  0  0
    4.1193   -3.0300    1.4711 C   0  0  0  0  0
    5.5009   -1.0801    1.1160 C   0  0  0  0  0
    0.5172    1.7644    1.4001 C   0  0  0  0  0
    0.8441    3.9162    0.3514 C   0  0  0  0  0
    3.2366   -1.1520    0.1286 C   0  0  0  0  0
    0.8589   -0.3687    0.1220 C   0  0  0  0  0
    2.0146   -0.9416    0.7739 N   0  0  0  0  0
    3.4269   -0.8616   -1.0634 O   0  0  0  0  0
    2.9545   -3.7146    1.2900 O   0  0  0  0  0
    5.6993    0.1592    0.5844 O   0  0  0  0  0
    0.1974    1.0432    2.4835 F   0  0  0  0  0
    0.8370    5.8033    0.4516 Br  0  0  0  0  0
  1  3  1  0  0  0
  2  8  1  0  0  0
  4 10  1  0  0  0
  5 12  1  0  0  0
  6 11  1  0  0  0
  7  9  1  0  0  0
  7 13  1  0  0  0
  9 17  1  0  0  0
 10 18  1  0  0  0
 11 19  1  0  0  0
 12 20  1  0  0  0
 13 15  1  0  0  0
 14  8  1  0  0  0
 14 15  1  0  0  0
  1  4  2  0  0  0
  2  5  2  0  0  0
  3  9  2  0  0  0
  6 12  2  0  0  0
  7 10  2  0  0  0
  8 11  2  0  0  0
 13 16  2  0  0  0
M  END
> <rmsd>
0.284102827

$$$$
ZINC92121694


 20 21  0  0  0  0  0  0  0  0999 V2000
    6.3359   -2.9312    2.4248 C   0  0  0  0  0
    0.5153    1.7602    1.3992 C   0  0  0  0  0
    5.1361   -3.6139    2.2254 C   0  0  0  0  0
    6.5180   -1.6642    1.8702 C   0  0  0  0  0
    0.5091    3.1528    1.4771 C   0  0  0  0  0
    1.1776    3.2855   -0.8409 C   0  0  0  0  0
    4.3002   -1.7629    0.9169 C   0  0  0  0  0
    0.8527    1.1302    0.2013 C   0  0  0  0  0
    4.1182   -3.0299    1.4714 C   0  0  0  0  0
    5.5001   -1.0802    1.1162 C   0  0  0  0  0
    1.1838    1.8928   -0.9187 C   0  0  0  0  0
    0.8402    3.9155    0.3570 C   0  0  0  0  0
    3.2362   -1.1524    0.1279 C   0  0  0  0  0
    0.8585   -0.3690    0.1199 C   0  0  0  0  0
    2.0139   -0.9417    0.7725 N   0  0  0  0  0
    3.4270   -0.8623   -1.0642 O   0  0  0  0  0
    2.9534   -3.7145    1.2900 O   0  0  0  0  0
    5.6987    0.1590    0.5843 O   0  0  0  0  0
    1.5091    1.2961   -2.0739 F   0  0  0  0  0
    0.8330    5.8023    0.4624 Br  0  0  0  0  0
  1  3  1  0  0  0
  2  8  1  0  0  0
  4 10  1  0  0  0
  5 12  1  0  0  0
  6 11  1  0  0  0
  7  9  1  0  0  0
  7 13  1  0  0  0
  9 17  1  0  0  0
 10 18  1  0  0  0
 11 19  1  0  0  0
 12 20  1  0  0  0
 13 15  1  0  0  0
 14  8  1  0  0  0
 14 15  1  0  0  0
  1  4  2  0  0  0
  2  5  2  0  0  0
  3  9  2  0  0  0
  6 12  2  0  0  0
  7 10  2  0  0  0
  8 11  2  0  0  0
 13 16  2  0  0  0
M  END
> <rmsd>
0.283925831

$$$$
ZINC92120863


 24 26  0  0  0  0  0  0  0  0999 V2000
    1.5605    7.2285   -2.1655 C   0  0  0  0  0
    2.1185    6.0734   -2.7131 C   0  0  0  0  0
    0.8220    7.1541   -0.9846 C   0  0  0  0  0
    6.3501   -2.9604    2.3804 C   0  0  0  0  0
    1.9380    4.8437   -2.0798 C   0  0  0  0  0
    0.6415    5.9245   -0.3512 C   0  0  0  0  0
    5.1421   -3.6316    2.1916 C   0  0  0  0  0
    6.5340   -1.6890    1.8366 C   0  0  0  0  0
    1.1994    4.7693   -0.8988 C   0  0  0  0  0
    4.3017   -1.7604    0.9152 C   0  0  0  0  0
    4.1180   -3.0317    1.4590 C   0  0  0  0  0
    5.5097   -1.0891    1.1039 C   0  0  0  0  0
    0.5925    1.9919    1.2941 C   0  0  0  0  0
    0.8606    1.1433    0.2405 C   0  0  0  0  0
    1.0136    3.4980   -0.2435 C   0  0  0  0  0
    3.2113   -1.1215    0.1342 C   0  0  0  0  0
    0.2270    1.5848    2.6662 C   0  0  0  0  0
    0.8595   -0.3325    0.1835 C   0  0  0  0  0
    0.6802    3.3425    1.0185 N   0  0  0  0  0
    2.0211   -0.9204    0.8138 N   0  0  0  0  0
    3.4067   -0.8320   -1.0432 O   0  0  0  0  0
    2.9452   -3.7053    1.2877 O   0  0  0  0  0
    5.7103    0.1540    0.5821 O   0  0  0  0  0
    1.2371    2.0628   -1.1574 S   0  0  0  0  0
  1  2  1  0  0  0
  3  6  1  0  0  0
  4  7  1  0  0  0
  5  9  1  0  0  0
  8 12  1  0  0  0
  9 15  1  0  0  0
 10 11  1  0  0  0
 10 16  1  0  0  0
 11 22  1  0  0  0
 12 23  1  0  0  0
 13 19  1  0  0  0
 14 24  1  0  0  0
 15 24  1  0  0  0
 16 20  1  0  0  0
 17 13  1  0  0  0
 18 14  1  0  0  0
 18 20  1  0  0  0
  1  3  2  0  0  0
  2  5  2  0  0  0
  4  8  2  0  0  0
  6  9  2  0  0  0
  7 11  2  0  0  0
 10 12  2  0  0  0
 13 14  2  0  0  0
 15 19  2  0  0  0
 16 21  2  0  0  0
M  END
> <rmsd>
0.268281847

$$$$
ZINC92121358


 24 26  0  0  0  0  0  0  0  0999 V2000
    0.4270    6.0362    4.2127 C   0  0  0  0  0
    1.5547    6.0174    3.3921 C   0  0  0  0  0
   -0.5961    5.1093    4.0135 C   0  0  0  0  0
    6.3240   -2.9500    2.4108 C   0  0  0  0  0
    1.6594    5.0718    2.3721 C   0  0  0  0  0
   -0.4915    4.1636    2.9935 C   0  0  0  0  0
    5.1147   -3.6170    2.2160 C   0  0  0  0  0
    6.5193   -1.6841    1.8584 C   0  0  0  0  0
    0.8640    3.5240   -0.2052 C   0  0  0  0  0
    0.6362    4.1448    2.1728 C   0  0  0  0  0
    4.2957   -1.7524    0.9160 C   0  0  0  0  0
    4.1005   -3.0183    1.4685 C   0  0  0  0  0
    5.5051   -1.0853    1.1111 C   0  0  0  0  0
    0.7436    3.1712    1.1226 C   0  0  0  0  0
    0.8432    1.1595    0.2546 C   0  0  0  0  0
    3.2159   -1.1148    0.1195 C   0  0  0  0  0
   -0.4100   -0.9976    0.6651 C   0  0  0  0  0
    0.8674   -0.3146    0.1395 C   0  0  0  0  0
    0.7310    1.8158    1.3882 N   0  0  0  0  0
    2.0293   -0.9072    0.7909 N   0  0  0  0  0
    3.4240   -0.8358   -1.0584 O   0  0  0  0  0
    2.9263   -3.6876    1.2914 O   0  0  0  0  0
    5.7167    0.1525    0.5810 O   0  0  0  0  0
    0.9686    2.1095   -1.1692 S   0  0  0  0  0
  1  2  1  0  0  0
  3  6  1  0  0  0
  4  7  1  0  0  0
  5 10  1  0  0  0
  8 13  1  0  0  0
  9 24  1  0  0  0
 10 14  1  0  0  0
 11 12  1  0  0  0
 11 16  1  0  0  0
 12 22  1  0  0  0
 13 23  1  0  0  0
 14 19  1  0  0  0
 15 24  1  0  0  0
 16 20  1  0  0  0
 17 18  1  0  0  0
 18 15  1  0  0  0
 18 20  1  0  0  0
  1  3  2  0  0  0
  2  5  2  0  0  0
  4  8  2  0  0  0
  6 10  2  0  0  0
  7 12  2  0  0  0
  9 14  2  0  0  0
 11 13  2  0  0  0
 15 19  2  0  0  0
 16 21  2  0  0  0
M  END
> <rmsd>
0.253920078

$$$$
ZINC16292188


 23 24  0  0  0  0  0  0  0  0999 V2000
   -0.0833    1.6895   -0.9626 C   0  0  0  0  0
    0.6079    1.9866    1.3334 C   0  0  0  0  0
   -1.1821    2.5192   -0.7391 C   0  0  0  0  0
   -0.4908    2.8164    1.5567 C   0  0  0  0  0
    0.8117    1.4231    0.0738 C   0  0  0  0  0
   -1.3858    3.0827    0.5205 C   0  0  0  0  0
    1.9797    0.5417   -0.1631 C   0  0  0  0  0
    3.6779   -1.2822   -0.1074 C   0  0  0  0  0
   -2.5618    3.9687    0.7590 C   0  0  0  0  0
    5.9347   -2.1151   -0.7244 C   0  0  0  0  0
    4.5091   -4.2547    3.2650 C   0  0  0  0  0
    6.6792   -2.3796    2.1987 C   0  0  0  0  0
    5.0576   -4.7021    0.8533 C   0  0  0  0  0
    5.0981   -1.4644    0.3960 C   0  0  0  0  0
    4.4790   -3.6605    1.8374 C   0  0  0  0  0
    5.1984   -2.2449    1.7701 C   0  0  0  0  0
    2.5635    0.4399   -1.3212 N   0  0  0  0  0
    3.6339   -0.3935   -1.2599 N   0  0  0  0  0
    4.6124   -6.0171    1.1835 O   0  0  0  0  0
    5.6674   -0.1580    0.5732 O   0  0  0  0  0
    3.0955   -3.4806    1.5030 O   0  0  0  0  0
    4.5940   -1.4050    2.7734 O   0  0  0  0  0
    2.6292   -0.4628    1.1272 S   0  0  0  0  0
  1  5  1  0  0  0
  2  4  1  0  0  0
  3  6  1  0  0  0
  5  7  1  0  0  0
  7 23  1  0  0  0
  8 14  1  0  0  0
  8 18  1  0  0  0
  8 23  1  0  0  0
  9  6  1  0  0  0
 10 14  1  0  0  0
 11 15  1  0  0  0
 12 16  1  0  0  0
 13 15  1  0  0  0
 13 19  1  0  0  0
 14 16  1  0  0  0
 14 20  1  0  0  0
 15 16  1  0  0  0
 15 21  1  0  0  0
 16 22  1  0  0  0
 18 17  1  0  0  0
  1  3  2  0  0  0
  2  5  2  0  0  0
  4  6  2  0  0  0
  7 17  2  0  0  0
M  END
> <rmsd>
0.425195694

$$$$
ZINC92120727


 24 25  0  0  0  0  0  0  0  0999 V2000
    6.3412   -2.9347    2.4167 C   0  0  0  0  0
    1.1838    1.8728   -0.9183 C   0  0  0  0  0
    5.1410   -3.6173    2.2191 C   0  0  0  0  0
    6.5216   -1.6667    1.8642 C   0  0  0  0  0
    1.1850    3.2665   -0.8628 C   0  0  0  0  0
    0.5221    3.1746    1.4586 C   0  0  0  0  0
    4.3015   -1.7641    0.9161 C   0  0  0  0  0
    0.8518    1.1299    0.2146 C   0  0  0  0  0
    0.5209    1.7808    1.4031 C   0  0  0  0  0
    0.8541    3.9174    0.3256 C   0  0  0  0  0
    4.1212   -3.0320    1.4687 C   0  0  0  0  0
    5.5017   -1.0814    1.1138 C   0  0  0  0  0
    3.2355   -1.1520    0.1310 C   0  0  0  0  0
    1.2033    5.9747   -0.8152 C   0  0  0  0  0
    0.8576   -0.3691    0.1304 C   0  0  0  0  0
    0.1610    1.0065    2.6283 C   0  0  0  0  0
    2.0148   -0.9428    0.7790 N   0  0  0  0  0
    3.4233   -0.8597   -1.0610 O   0  0  0  0  0
    2.9561   -3.7165    1.2890 O   0  0  0  0  0
    5.6988    0.1588    0.5837 O   0  0  0  0  0
    0.8546    5.2774    0.3798 O   0  0  0  0  0
   -0.1369    1.7936    3.7032 F   0  0  0  0  0
   -0.9279    0.2001    2.4627 F   0  0  0  0  0
    1.1679    0.1846    3.0423 F   0  0  0  0  0
  1  3  1  0  0  0
  2  8  1  0  0  0
  4 12  1  0  0  0
  5 10  1  0  0  0
  6  9  1  0  0  0
  7 11  1  0  0  0
  7 13  1  0  0  0
 10 21  1  0  0  0
 11 19  1  0  0  0
 12 20  1  0  0  0
 13 17  1  0  0  0
 14 21  1  0  0  0
 15  8  1  0  0  0
 15 17  1  0  0  0
 16  9  1  0  0  0
 16 22  1  0  0  0
 16 23  1  0  0  0
 16 24  1  0  0  0
  1  4  2  0  0  0
  2  5  2  0  0  0
  3 11  2  0  0  0
  6 10  2  0  0  0
  7 12  2  0  0  0
  8  9  2  0  0  0
 13 18  2  0  0  0
M  END
> <rmsd>
0.284895301

$$$$
ZINC92119734


 24 25  0  0  0  0  0  0  0  0999 V2000
    1.1838    3.2707   -0.8575 C   0  0  0  0  0
    0.8517    3.9170    0.3330 C   0  0  0  0  0
    6.3402   -2.9339    2.4187 C   0  0  0  0  0
    1.1839    1.8772   -0.9182 C   0  0  0  0  0
    0.5197    3.1697    1.4631 C   0  0  0  0  0
    5.1401   -3.6166    2.2207 C   0  0  0  0  0
    6.5209   -1.6661    1.8658 C   0  0  0  0  0
    4.3014   -1.7639    0.9165 C   0  0  0  0  0
    0.8521    1.1298    0.2118 C   0  0  0  0  0
    4.1207   -3.0316    1.4696 C   0  0  0  0  0
    5.5014   -1.0811    1.1146 C   0  0  0  0  0
    0.5199    1.7761    1.4026 C   0  0  0  0  0
    3.2358   -1.1521    0.1305 C   0  0  0  0  0
    0.8579   -0.3692    0.1282 C   0  0  0  0  0
    1.0120    1.2488    3.6687 C   0  0  0  0  0
    1.0409   -0.0296    4.4654 C   0  0  0  0  0
    2.0147   -0.9426    0.7778 N   0  0  0  0  0
    3.4242   -0.8603   -1.0615 O   0  0  0  0  0
    2.9556   -3.7161    1.2895 O   0  0  0  0  0
    5.6989    0.1589    0.5840 O   0  0  0  0  0
    0.1941    1.0611    2.5156 O   0  0  0  0  0
   -0.2063   -0.3784    4.8502 F   0  0  0  0  0
    1.7924    0.1041    5.5786 F   0  0  0  0  0
    1.5462   -1.0483    3.7383 F   0  0  0  0  0
  1  2  1  0  0  0
  3  6  1  0  0  0
  4  9  1  0  0  0
  5 12  1  0  0  0
  7 11  1  0  0  0
  8 10  1  0  0  0
  8 13  1  0  0  0
 10 19  1  0  0  0
 11 20  1  0  0  0
 12 21  1  0  0  0
 13 17  1  0  0  0
 14  9  1  0  0  0
 14 17  1  0  0  0
 15 16  1  0  0  0
 15 21  1  0  0  0
 16 22  1  0  0  0
 16 23  1  0  0  0
 16 24  1  0  0  0
  1  4  2  0  0  0
  2  5  2  0  0  0
  3  7  2  0  0  0
  6 10  2  0  0  0
  8 11  2  0  0  0
  9 12  2  0  0  0
 13 18  2  0  0  0
M  END
> <rmsd>
0.284701735

$$$$
ZINC92119734


 24 25  0  0  0  0  0  0  0  0999 V2000
    1.1840    3.2708   -0.8579 C   0  0  0  0  0
    0.8519    3.9172    0.3326 C   0  0  0  0  0
    6.3404   -2.9336    2.4188 C   0  0  0  0  0
    1.1841    1.8772   -0.9184 C   0  0  0  0  0
    0.5200    3.1701    1.4628 C   0  0  0  0  0
    5.1403   -3.6163    2.2209 C   0  0  0  0  0
    6.5211   -1.6659    1.8657 C   0  0  0  0  0
    4.3016   -1.7637    0.9166 C   0  0  0  0  0
    0.8523    1.1300    0.2117 C   0  0  0  0  0
    4.1209   -3.0313    1.4698 C   0  0  0  0  0
    5.5017   -1.0809    1.1145 C   0  0  0  0  0
    0.5202    1.7765    1.4024 C   0  0  0  0  0
    3.2359   -1.1520    0.1305 C   0  0  0  0  0
    0.8581   -0.3690    0.1283 C   0  0  0  0  0
   -1.1038    1.2753    3.0658 C   0  0  0  0  0
   -1.5634    0.0130    3.7478 C   0  0  0  0  0
    2.0149   -0.9424    0.7778 N   0  0  0  0  0
    3.4243   -0.8603   -1.0615 O   0  0  0  0  0
    2.9558   -3.7158    1.2898 O   0  0  0  0  0
    5.6991    0.1590    0.5838 O   0  0  0  0  0
    0.1944    1.0616    2.5155 O   0  0  0  0  0
   -1.6103   -1.0123    2.8693 F   0  0  0  0  0
   -2.7982    0.1616    4.2725 F   0  0  0  0  0
   -0.7239   -0.3385    4.7446 F   0  0  0  0  0
  1  2  1  0  0  0
  3  6  1  0  0  0
  4  9  1  0  0  0
  5 12  1  0  0  0
  7 11  1  0  0  0
  8 10  1  0  0  0
  8 13  1  0  0  0
 10 19  1  0  0  0
 11 20  1  0  0  0
 12 21  1  0  0  0
 13 17  1  0  0  0
 14  9  1  0  0  0
 14 17  1  0  0  0
 15 16  1  0  0  0
 15 21  1  0  0  0
 16 22  1  0  0  0
 16 23  1  0  0  0
 16 24  1  0  0  0
  1  4  2  0  0  0
  2  5  2  0  0  0
  3  7  2  0  0  0
  6 10  2  0  0  0
  8 11  2  0  0  0
  9 12  2  0  0  0
 13 18  2  0  0  0
M  END
> <rmsd>
0.284599781

$$$$
ZINC92121535


 24 26  0  0  0  0  0  0  0  0999 V2000
    6.3318   -2.9482    2.4046 C   0  0  0  0  0
    5.1246   -3.6193    2.2106 C   0  0  0  0  0
    6.5215   -1.6805    1.8544 C   0  0  0  0  0
    1.0070    5.4179    2.0544 C   0  0  0  0  0
    2.7301    3.9237    2.8180 C   0  0  0  0  0
    1.4653    6.3356    2.9857 C   0  0  0  0  0
    3.1112    4.9084    3.7150 C   0  0  0  0  0
    0.6410    3.5415   -0.1768 C   0  0  0  0  0
    1.6569    4.1912    1.9752 C   0  0  0  0  0
    4.2965   -1.7551    0.9158 C   0  0  0  0  0
    4.1069   -3.0228    1.4663 C   0  0  0  0  0
    5.5038   -1.0840    1.1099 C   0  0  0  0  0
    1.2220    3.2054    1.0280 C   0  0  0  0  0
    0.8847    1.1832    0.2493 C   0  0  0  0  0
    3.2327   -1.1315    0.1369 C   0  0  0  0  0
   -0.4261   -0.9303    0.7046 C   0  0  0  0  0
    0.8621   -0.3268    0.1486 C   0  0  0  0  0
    2.5043    6.1118    3.8211 N   0  0  0  0  0
    1.3621    1.8536    1.2743 N   0  0  0  0  0
    2.0168   -0.9126    0.7908 N   0  0  0  0  0
    3.4179   -0.8380   -1.0553 O   0  0  0  0  0
    2.9347   -3.6961    1.2899 O   0  0  0  0  0
    5.7098    0.1555    0.5818 O   0  0  0  0  0
    0.2521    2.1149   -1.0457 S   0  0  0  0  0
  1  2  1  0  0  0
  3 12  1  0  0  0
  4  9  1  0  0  0
  5  7  1  0  0  0
  6 18  1  0  0  0
  8 24  1  0  0  0
  9 13  1  0  0  0
 10 11  1  0  0  0
 10 15  1  0  0  0
 11 22  1  0  0  0
 12 23  1  0  0  0
 13 19  1  0  0  0
 14 24  1  0  0  0
 15 20  1  0  0  0
 16 17  1  0  0  0
 17 14  1  0  0  0
 17 20  1  0  0  0
  1  3  2  0  0  0
  2 11  2  0  0  0
  4  6  2  0  0  0
  5  9  2  0  0  0
  7 18  2  0  0  0
  8 13  2  0  0  0
 10 12  2  0  0  0
 14 19  2  0  0  0
 15 21  2  0  0  0
M  END
> <rmsd>
0.265883565

$$$$
ZINC92123579


 25 27  0  0  0  0  0  0  0  0999 V2000
    6.4434   -2.9898    2.2552 C   0  0  0  0  0
   -2.8551    0.5385    1.8259 C   0  0  0  0  0
   -2.3855   -0.1733   -0.4346 C   0  0  0  0  0
   -3.9661   -0.3042    1.8605 C   0  0  0  0  0
   -3.4965   -1.0161   -0.4000 C   0  0  0  0  0
    5.2421   -3.6793    2.0913 C   0  0  0  0  0
    6.5816   -1.6986    1.7456 C   0  0  0  0  0
    4.3171   -1.7867    0.9082 C   0  0  0  0  0
   -2.0648    0.6040    0.6784 C   0  0  0  0  0
   -4.2868   -1.0815    0.7475 C   0  0  0  0  0
    4.1789   -3.0778    1.4179 C   0  0  0  0  0
    5.5184   -1.0971    1.0722 C   0  0  0  0  0
    3.1851   -1.1462    0.1904 C   0  0  0  0  0
    1.6848    2.5558   -0.2566 C   0  0  0  0  0
    1.5822    1.8771    1.1072 C   0  0  0  0  0
    0.3284    3.0774   -0.7101 C   0  0  0  0  0
   -0.8564    1.5201    0.6399 C   0  0  0  0  0
    0.4392    0.8483    1.1530 C   0  0  0  0  0
   -5.4739   -1.9835    0.7859 C   0  0  0  0  0
    0.8225   -0.4063    0.3548 C   0  0  0  0  0
    1.9977   -0.9799    0.9111 N   0  0  0  0  0
    3.3291   -0.8161   -0.9838 O   0  0  0  0  0
   -0.6558    2.0439   -0.6803 O   0  0  0  0  0
    3.0136   -3.7695    1.2700 O   0  0  0  0  0
    5.6748    0.1655    0.5831 O   0  0  0  0  0
  1  6  1  0  0  0
  2  9  1  0  0  0
  3  5  1  0  0  0
  4 10  1  0  0  0
  7 12  1  0  0  0
  8 11  1  0  0  0
  8 13  1  0  0  0
 11 24  1  0  0  0
 12 25  1  0  0  0
 13 21  1  0  0  0
 14 15  1  0  0  0
 14 16  1  0  0  0
 15 18  1  0  0  0
 16 23  1  0  0  0
 17  9  1  0  0  0
 17 18  1  0  0  0
 17 23  1  0  0  0
 18 20  1  0  0  0
 19 10  1  0  0  0
 20 21  1  0  0  0
  1  7  2  0  0  0
  2  4  2  0  0  0
  3  9  2  0  0  0
  5 10  2  0  0  0
  6 11  2  0  0  0
  8 12  2  0  0  0
 13 22  2  0  0  0
M  END
> <rmsd>
0.393110722

$$$$
ZINC73732993


 25 26  0  0  0  0  0  0  0  0999 V2000
    2.2035    2.1582   -0.3591 C   0  0  0  0  0
    2.4255   -2.6872   -2.1420 C   0  0  0  0  0
    0.8915    2.4380   -0.7407 C   0  0  0  0  0
    2.6034    2.3590    0.9622 C   0  0  0  0  0
    2.5127   -3.3695   -0.9336 C   0  0  0  0  0
    3.0033   -1.4303   -2.2202 C   0  0  0  0  0
   -0.0207    2.9186    0.1987 C   0  0  0  0  0
    1.6913    2.8397    1.9016 C   0  0  0  0  0
    0.3792    3.1194    1.5199 C   0  0  0  0  0
    3.1657   -2.7825    0.1444 C   0  0  0  0  0
    3.7105   -1.5213   -0.0361 C   0  0  0  0  0
    4.4202   -0.8319    1.0665 C   0  0  0  0  0
    2.7904    0.8106    4.2218 C   0  0  0  0  0
   -1.4200    3.2101   -0.2358 C   0  0  0  0  0
   -0.5989    3.6349    2.5272 C   0  0  0  0  0
    2.6898    4.4572    3.5686 C   0  0  0  0  0
    4.0265   -0.0208    4.5277 C   0  0  0  0  0
    4.8994   -0.2773    3.3079 C   0  0  0  0  0
    2.1510    3.0483    3.3284 C   0  0  0  0  0
    3.6458   -0.8276   -1.1947 N   0  0  0  0  0
    4.1307   -1.0144    2.3020 N   0  0  0  0  0
    3.1290    2.0570    3.7147 N   0  0  0  0  0
    1.6451    0.4053    4.4008 O   0  0  0  0  0
    3.2559   -3.4418    1.3278 O   0  0  0  0  0
    5.3836   -0.0088    0.5928 O   0  0  0  0  0
  1  4  1  0  0  0
  2  5  1  0  0  0
  3  7  1  0  0  0
  6 20  1  0  0  0
  8  9  1  0  0  0
 10 11  1  0  0  0
 10 24  1  0  0  0
 11 12  1  0  0  0
 12 25  1  0  0  0
 13 22  1  0  0  0
 14  7  1  0  0  0
 15  9  1  0  0  0
 16 19  1  0  0  0
 17 13  1  0  0  0
 17 18  1  0  0  0
 18 21  1  0  0  0
 19  8  1  0  0  0
 19 22  1  0  0  0
  1  3  2  0  0  0
  2  6  2  0  0  0
  4  8  2  0  0  0
  5 10  2  0  0  0
  7  9  2  0  0  0
 11 20  2  0  0  0
 12 21  2  0  0  0
 13 23  2  0  0  0
M  END
> <rmsd>
0.463762045

$$$$
ZINC00003048


 25 26  0  0  0  0  0  0  0  0999 V2000
   -0.6618    2.1537    0.3121 C   0  0  0  0  0
   -0.3329    1.6727   -0.9552 C   0  0  0  0  0
    0.1465    1.8455    1.4065 C   0  0  0  0  0
    0.8042    0.8836   -1.1283 C   0  0  0  0  0
    1.2835    1.0563    1.2334 C   0  0  0  0  0
    6.5203   -3.5150    1.3583 C   0  0  0  0  0
    1.6123    0.5753   -0.0339 C   0  0  0  0  0
    6.7062   -2.1701    1.0381 C   0  0  0  0  0
    5.2312   -4.0185    1.5330 C   0  0  0  0  0
    4.3142   -1.8325    1.0672 C   0  0  0  0  0
    5.6032   -1.3289    0.8925 C   0  0  0  0  0
    4.1281   -3.1772    1.3874 C   0  0  0  0  0
    2.8128   -0.2583   -0.2168 C   0  0  0  0  0
    9.1513   -2.7755    1.0722 C   0  0  0  0  0
    8.4057   -0.5088    1.8736 C   0  0  0  0  0
    8.4049   -1.0486   -0.5533 C   0  0  0  0  0
    6.4279   -6.1898    1.9794 C   0  0  0  0  0
    4.2110   -6.1979    0.7870 C   0  0  0  0  0
    4.3250   -5.7444    3.2289 C   0  0  0  0  0
    8.1353   -1.6340    0.8514 C   0  0  0  0  0
    5.0529   -5.4614    1.8738 C   0  0  0  0  0
    3.2077   -0.9893    0.9190 N   0  0  0  0  0
    3.4214   -0.2654   -1.2848 O   0  0  0  0  0
    5.7906   -0.0141    0.5785 O   0  0  0  0  0
    2.8690   -3.6752    1.5583 O   0  0  0  0  0
  1  2  1  0  0  0
  3  5  1  0  0  0
  4  7  1  0  0  0
  6  8  1  0  0  0
  7 13  1  0  0  0
  9 12  1  0  0  0
 10 11  1  0  0  0
 10 22  1  0  0  0
 11 24  1  0  0  0
 12 25  1  0  0  0
 13 22  1  0  0  0
 14 20  1  0  0  0
 15 20  1  0  0  0
 16 20  1  0  0  0
 17 21  1  0  0  0
 18 21  1  0  0  0
 19 21  1  0  0  0
 20  8  1  0  0  0
 21  9  1  0  0  0
  1  3  2  0  0  0
  2  4  2  0  0  0
  5  7  2  0  0  0
  6  9  2  0  0  0
  8 11  2  0  0  0
 10 12  2  0  0  0
 13 23  2  0  0  0
M  END
> <rmsd>
0.50064981

$$$$
ZINC92108310


 24 25  0  0  0  0  0  0  0  0999 V2000
    6.3260   -2.9264    2.4383 C   0  0  0  0  0
    0.4703    1.7507    1.4090 C   0  0  0  0  0
    5.1261   -3.6080    2.2361 C   0  0  0  0  0
    6.5125   -1.6617    1.8800 C   0  0  0  0  0
    0.4526    3.1388    1.4883 C   0  0  0  0  0
    1.1680    1.9409   -0.8567 C   0  0  0  0  0
    4.2988   -1.7604    0.9173 C   0  0  0  0  0
    0.8338    1.1325    0.2178 C   0  0  0  0  0
    4.1124   -3.0251    1.4755 C   0  0  0  0  0
    5.4988   -1.0788    1.1196 C   0  0  0  0  0
    0.8042    3.8574    0.3569 C   0  0  0  0  0
    3.2393   -1.1509    0.1215 C   0  0  0  0  0
    0.8629   -0.3640    0.1001 C   0  0  0  0  0
    1.1634    5.9160   -0.7782 C   0  0  0  0  0
    1.1094    7.4000   -0.5235 C   0  0  0  0  0
    1.1626    3.2922   -0.8177 N   0  0  0  0  0
    2.0145   -0.9361    0.7599 N   0  0  0  0  0
    3.4358   -0.8654   -1.0709 O   0  0  0  0  0
    2.9474   -3.7084    1.2914 O   0  0  0  0  0
    5.7017    0.1582    0.5840 O   0  0  0  0  0
    0.7945    5.2266    0.4102 O   0  0  0  0  0
   -0.1351    7.7742   -0.1542 F   0  0  0  0  0
    1.4374    8.0991   -1.6306 F   0  0  0  0  0
    1.9562    7.7583    0.4647 F   0  0  0  0  0
  1  3  1  0  0  0
  2  8  1  0  0  0
  4 10  1  0  0  0
  5 11  1  0  0  0
  6 16  1  0  0  0
  7  9  1  0  0  0
  7 12  1  0  0  0
  9 19  1  0  0  0
 10 20  1  0  0  0
 11 21  1  0  0  0
 12 17  1  0  0  0
 13  8  1  0  0  0
 13 17  1  0  0  0
 14 15  1  0  0  0
 14 21  1  0  0  0
 15 22  1  0  0  0
 15 23  1  0  0  0
 15 24  1  0  0  0
  1  4  2  0  0  0
  2  5  2  0  0  0
  3  9  2  0  0  0
  6  8  2  0  0  0
  7 10  2  0  0  0
 11 16  2  0  0  0
 12 18  2  0  0  0
M  END
> <rmsd>
0.278171867

$$$$
ZINC92120077


 25 27  0  0  0  0  0  0  0  0999 V2000
    6.3271   -2.9270    2.4367 C   0  0  0  0  0
    0.9440    1.9030   -0.9487 C   0  0  0  0  0
    0.7114    1.7355    1.4502 C   0  0  0  0  0
    0.9215    3.2944   -0.8538 C   0  0  0  0  0
    0.6892    3.1270    1.5452 C   0  0  0  0  0
    5.1269   -3.6084    2.2350 C   0  0  0  0  0
    6.5133   -1.6621    1.8789 C   0  0  0  0  0
    4.2991   -1.7602    0.9174 C   0  0  0  0  0
    0.8389    1.1235    0.2033 C   0  0  0  0  0
    0.7942    3.9064    0.3932 C   0  0  0  0  0
    4.1129   -3.0250    1.4753 C   0  0  0  0  0
    5.4993   -1.0787    1.1193 C   0  0  0  0  0
    3.2194   -1.1389    0.1079 C   0  0  0  0  0
    0.2275    6.0663   -0.6407 C   0  0  0  0  0
    1.7983    5.9961    1.2761 C   0  0  0  0  0
   -0.1796    7.4584   -0.1712 C   0  0  0  0  0
    1.3077    7.3923    1.6430 C   0  0  0  0  0
   -0.4179   -1.0281    0.6314 C   0  0  0  0  0
    0.8623   -0.3642    0.1027 C   0  0  0  0  0
    0.7735    5.3016    0.4889 N   0  0  0  0  0
    2.0209   -0.9387    0.7655 N   0  0  0  0  0
    3.4349   -0.8642   -1.0698 O   0  0  0  0  0
    0.9163    8.1085    0.4722 O   0  0  0  0  0
    2.9476   -3.7083    1.2918 O   0  0  0  0  0
    5.7020    0.1584    0.5841 O   0  0  0  0  0
  1  6  1  0  0  0
  2  9  1  0  0  0
  3  5  1  0  0  0
  4 10  1  0  0  0
  7 12  1  0  0  0
  8 11  1  0  0  0
  8 13  1  0  0  0
 10 20  1  0  0  0
 11 24  1  0  0  0
 12 25  1  0  0  0
 13 21  1  0  0  0
 14 16  1  0  0  0
 14 20  1  0  0  0
 15 17  1  0  0  0
 15 20  1  0  0  0
 16 23  1  0  0  0
 17 23  1  0  0  0
 18 19  1  0  0  0
 19  9  1  0  0  0
 19 21  1  0  0  0
  1  7  2  0  0  0
  2  4  2  0  0  0
  3  9  2  0  0  0
  5 10  2  0  0  0
  6 11  2  0  0  0
  8 12  2  0  0  0
 13 22  2  0  0  0
M  END
> <rmsd>
0.277481705

$$$$
ZINC92120077


 25 27  0  0  0  0  0  0  0  0999 V2000
    6.3272   -2.9277    2.4362 C   0  0  0  0  0
    0.9442    1.9029   -0.9487 C   0  0  0  0  0
    0.7119    1.7352    1.4502 C   0  0  0  0  0
    0.9219    3.2943   -0.8537 C   0  0  0  0  0
    0.6895    3.1267    1.5453 C   0  0  0  0  0
    5.1269   -3.6089    2.2345 C   0  0  0  0  0
    6.5135   -1.6628    1.8784 C   0  0  0  0  0
    4.2992   -1.7606    0.9170 C   0  0  0  0  0
    0.8391    1.1233    0.2032 C   0  0  0  0  0
    0.7946    3.9062    0.3933 C   0  0  0  0  0
    4.1129   -3.0255    1.4749 C   0  0  0  0  0
    5.4995   -1.0792    1.1188 C   0  0  0  0  0
    3.2195   -1.1393    0.1075 C   0  0  0  0  0
    0.0458    6.0015    1.5424 C   0  0  0  0  0
    1.8122    6.1038   -0.1553 C   0  0  0  0  0
    1.0508    6.5054    2.5726 C   0  0  0  0  0
    2.7569    6.6177    0.9320 C   0  0  0  0  0
   -0.4177   -1.0282    0.6313 C   0  0  0  0  0
    0.8625   -0.3645    0.1026 C   0  0  0  0  0
    0.7742    5.2918    0.4884 N   0  0  0  0  0
    2.0211   -0.9390    0.7653 N   0  0  0  0  0
    3.4349   -0.8645   -1.0700 O   0  0  0  0  0
    2.0293    7.3354    1.9351 O   0  0  0  0  0
    2.9476   -3.7086    1.2912 O   0  0  0  0  0
    5.7022    0.1578    0.5837 O   0  0  0  0  0
  1  6  1  0  0  0
  2  9  1  0  0  0
  3  5  1  0  0  0
  4 10  1  0  0  0
  7 12  1  0  0  0
  8 11  1  0  0  0
  8 13  1  0  0  0
 10 20  1  0  0  0
 11 24  1  0  0  0
 12 25  1  0  0  0
 13 21  1  0  0  0
 14 16  1  0  0  0
 14 20  1  0  0  0
 15 17  1  0  0  0
 15 20  1  0  0  0
 16 23  1  0  0  0
 17 23  1  0  0  0
 18 19  1  0  0  0
 19  9  1  0  0  0
 19 21  1  0  0  0
  1  7  2  0  0  0
  2  4  2  0  0  0
  3  9  2  0  0  0
  5 10  2  0  0  0
  6 11  2  0  0  0
  8 12  2  0  0  0
 13 22  2  0  0  0
M  END
> <rmsd>
0.277475089

$$$$
ZINC92120077


 25 27  0  0  0  0  0  0  0  0999 V2000
    6.3272   -2.9268    2.4366 C   0  0  0  0  0
    0.9441    1.9036   -0.9483 C   0  0  0  0  0
    0.7118    1.7360    1.4507 C   0  0  0  0  0
    0.9218    3.2951   -0.8533 C   0  0  0  0  0
    0.6895    3.1276    1.5457 C   0  0  0  0  0
    5.1270   -3.6080    2.2349 C   0  0  0  0  0
    6.5135   -1.6620    1.8787 C   0  0  0  0  0
    4.2991   -1.7598    0.9175 C   0  0  0  0  0
    0.8391    1.1241    0.2037 C   0  0  0  0  0
    0.7945    3.9070    0.3937 C   0  0  0  0  0
    4.1129   -3.0246    1.4754 C   0  0  0  0  0
    5.4994   -1.0784    1.1192 C   0  0  0  0  0
    3.2194   -1.1385    0.1080 C   0  0  0  0  0
    1.4793    6.1608   -0.4566 C   0  0  0  0  0
   -0.2859    5.9783    1.2356 C   0  0  0  0  0
    0.4579    6.7712   -1.4103 C   0  0  0  0  0
   -1.2475    6.6081    0.2269 C   0  0  0  0  0
   -0.4178   -1.0274    0.6319 C   0  0  0  0  0
    0.8624   -0.3637    0.1031 C   0  0  0  0  0
    0.7741    5.2926    0.4888 N   0  0  0  0  0
    2.0211   -0.9382    0.7658 N   0  0  0  0  0
    3.4348   -0.8638   -1.0695 O   0  0  0  0  0
   -0.5433    7.4772   -0.6672 O   0  0  0  0  0
    2.9476   -3.7078    1.2918 O   0  0  0  0  0
    5.7021    0.1587    0.5840 O   0  0  0  0  0
  1  6  1  0  0  0
  2  9  1  0  0  0
  3  5  1  0  0  0
  4 10  1  0  0  0
  7 12  1  0  0  0
  8 11  1  0  0  0
  8 13  1  0  0  0
 10 20  1  0  0  0
 11 24  1  0  0  0
 12 25  1  0  0  0
 13 21  1  0  0  0
 14 16  1  0  0  0
 14 20  1  0  0  0
 15 17  1  0  0  0
 15 20  1  0  0  0
 16 23  1  0  0  0
 17 23  1  0  0  0
 18 19  1  0  0  0
 19  9  1  0  0  0
 19 21  1  0  0  0
  1  7  2  0  0  0
  2  4  2  0  0  0
  3  9  2  0  0  0
  5 10  2  0  0  0
  6 11  2  0  0  0
  8 12  2  0  0  0
 13 22  2  0  0  0
M  END
> <rmsd>
0.277465492

$$$$
ZINC67878314


 25 27  0  0  0  0  0  0  0  0999 V2000
    6.3426   -2.9385    2.4126 C   0  0  0  0  0
    1.1699    3.2539   -0.8666 C   0  0  0  0  0
    1.1744    1.8648   -0.9264 C   0  0  0  0  0
    5.1412   -3.6195    2.2164 C   0  0  0  0  0
    6.5234   -1.6701    1.8612 C   0  0  0  0  0
    0.8378    3.8501    0.3393 C   0  0  0  0  0
    4.3015   -1.7637    0.9171 C   0  0  0  0  0
    0.8514    1.1248    0.2055 C   0  0  0  0  0
    4.1207   -3.0322    1.4687 C   0  0  0  0  0
    5.5028   -1.0828    1.1133 C   0  0  0  0  0
    0.5337    1.8162    1.3634 C   0  0  0  0  0
    3.2153   -1.1382    0.1196 C   0  0  0  0  0
   -1.2038    0.7261    2.7104 C   0  0  0  0  0
    1.0160    1.2245    3.7201 C   0  0  0  0  0
   -1.3289   -0.5052    3.5975 C   0  0  0  0  0
    0.8836   -0.0057    4.6090 C   0  0  0  0  0
   -0.7663   -1.3983    5.8572 C   0  0  0  0  0
    0.8579   -0.3645    0.1375 C   0  0  0  0  0
    0.5186    3.1646    1.4598 N   0  0  0  0  0
    0.2081    1.0754    2.5055 N   0  0  0  0  0
    2.0123   -0.9378    0.7823 N   0  0  0  0  0
   -0.5747   -0.2713    4.8818 N   0  0  0  0  0
    3.4216   -0.8560   -1.0578 O   0  0  0  0  0
    2.9550   -3.7156    1.2890 O   0  0  0  0  0
    5.7008    0.1575    0.5838 O   0  0  0  0  0
  1  4  1  0  0  0
  2  3  1  0  0  0
  5 10  1  0  0  0
  6 19  1  0  0  0
  7  9  1  0  0  0
  7 12  1  0  0  0
  8 11  1  0  0  0
  9 24  1  0  0  0
 10 25  1  0  0  0
 11 20  1  0  0  0
 12 21  1  0  0  0
 13 15  1  0  0  0
 13 20  1  0  0  0
 14 16  1  0  0  0
 14 20  1  0  0  0
 15 22  1  0  0  0
 16 22  1  0  0  0
 17 22  1  0  0  0
 18  8  1  0  0  0
 18 21  1  0  0  0
  1  5  2  0  0  0
  2  6  2  0  0  0
  3  8  2  0  0  0
  4  9  2  0  0  0
  7 10  2  0  0  0
 11 19  2  0  0  0
 12 23  2  0  0  0
M  CHG  1  22   1
M  END
> <rmsd>
0.280626059

$$$$
ZINC64220222


 22 23  0  0  0  0  0  0  0  0999 V2000
   -0.3754    3.0776   -0.6825 C   0  0  0  0  0
   -0.5771    0.8473    0.1186 C   0  0  0  0  0
   -1.1773    1.9708   -0.4268 C   0  0  0  0  0
    0.9827    3.0278   -0.3892 C   0  0  0  0  0
    1.4862    1.8571    0.1546 C   0  0  0  0  0
    3.3296   -0.5947    0.1285 C   0  0  0  0  0
    4.5994   -1.3756    0.4080 C   0  0  0  0  0
    3.4721    0.6249    1.0236 C   0  0  0  0  0
    5.7788   -3.0862    1.8422 C   0  0  0  0  0
    4.4987   -2.2948    1.6226 C   0  0  0  0  0
   -2.6334    1.9921   -0.7292 C   0  0  0  0  0
    0.7386    0.7616    0.4170 N   0  0  0  0  0
    5.6035   -0.3357    0.6574 N   0  0  0  0  0
    2.8365    1.7892    0.4534 N   0  0  0  0  0
    4.8813    0.8344    1.1720 O   0  0  0  0  0
    3.3230   -0.2364   -1.2542 O   0  0  0  0  0
    2.8874    0.3361    2.2914 O   0  0  0  0  0
    3.4151   -3.2001    1.4367 O   0  0  0  0  0
   -3.0686    3.1736   -1.2633 F   0  0  0  0  0
   -3.0239    1.0356   -1.6251 F   0  0  0  0  0
   -3.4070    1.7885    0.3787 F   0  0  0  0  0
    1.9623    4.4079   -0.7125 Cl  0  0  0  0  0
  1  3  1  0  0  0
  2 12  1  0  0  0
  4  5  1  0  0  0
  4 22  1  0  0  0
  5 14  1  0  0  0
  6  7  1  0  0  0
  6  8  1  0  0  0
  6 16  1  0  0  0
  7 10  1  0  0  0
  7 13  1  0  0  0
  8 14  1  0  0  0
  8 15  1  0  0  0
  8 17  1  0  0  0
  9 10  1  0  0  0
 10 18  1  0  0  0
 11  3  1  0  0  0
 11 19  1  0  0  0
 11 20  1  0  0  0
 11 21  1  0  0  0
 13 15  1  0  0  0
  1  4  2  0  0  0
  2  3  2  0  0  0
  5 12  2  0  0  0
M  END
> <rmsd>
0.429531127

$$$$
ZINC92126310


 25 27  0  0  0  0  0  0  0  0999 V2000
    6.3275   -2.9515    2.3994 C   0  0  0  0  0
    1.8963    6.3942   -2.9386 C   0  0  0  0  0
    5.1177   -3.6184    2.2070 C   0  0  0  0  0
    6.5204   -1.6840    1.8498 C   0  0  0  0  0
    0.9818    6.5413   -1.8958 C   0  0  0  0  0
    2.5455    5.1746   -3.1300 C   0  0  0  0  0
    0.5831    1.9834    1.3685 C   0  0  0  0  0
    0.7393    3.2743    0.9266 C   0  0  0  0  0
    4.2935   -1.7505    0.9152 C   0  0  0  0  0
    1.3660    4.2493   -1.2355 C   0  0  0  0  0
    4.1007   -3.0179    1.4648 C   0  0  0  0  0
    5.5033   -1.0836    1.1076 C   0  0  0  0  0
    0.7166    5.4689   -1.0442 C   0  0  0  0  0
    2.2804    4.1021   -2.2786 C   0  0  0  0  0
    0.8761    1.1886    0.2440 C   0  0  0  0  0
    3.2304   -1.1227    0.1385 C   0  0  0  0  0
    0.8626   -0.3101    0.1550 C   0  0  0  0  0
    1.1940    1.9141   -0.8314 N   0  0  0  0  0
    1.1018    3.1782   -0.3846 N   0  0  0  0  0
    2.0164   -0.9003    0.7947 N   0  0  0  0  0
    3.4146   -0.8288   -1.0537 O   0  0  0  0  0
    2.9260   -3.6872    1.2901 O   0  0  0  0  0
    5.7127    0.1558    0.5802 O   0  0  0  0  0
   -0.1642    5.6246   -0.0452 F   0  0  0  0  0
    2.9128    2.9359   -2.4736 F   0  0  0  0  0
  1  3  1  0  0  0
  2  5  1  0  0  0
  4 12  1  0  0  0
  6 14  1  0  0  0
  7 15  1  0  0  0
  8 19  1  0  0  0
  9 11  1  0  0  0
  9 16  1  0  0  0
 10 13  1  0  0  0
 10 19  1  0  0  0
 11 22  1  0  0  0
 12 23  1  0  0  0
 13 24  1  0  0  0
 14 25  1  0  0  0
 16 20  1  0  0  0
 17 15  1  0  0  0
 17 20  1  0  0  0
 19 18  1  0  0  0
  1  4  2  0  0  0
  2  6  2  0  0  0
  3 11  2  0  0  0
  5 13  2  0  0  0
  7  8  2  0  0  0
  9 12  2  0  0  0
 10 14  2  0  0  0
 15 18  2  0  0  0
 16 21  2  0  0  0
M  END
> <rmsd>
0.267451555

$$$$
ZINC92122089


 24 26  0  0  0  0  0  0  0  0999 V2000
    6.3583   -2.9866    2.3391 C   0  0  0  0  0
    0.3024    4.3442    2.8490 C   0  0  0  0  0
    0.8112    5.6416    0.8754 C   0  0  0  0  0
    5.1424   -3.6463    2.1601 C   0  0  0  0  0
    6.5454   -1.7117    1.8050 C   0  0  0  0  0
    0.1433    5.5207    3.5813 C   0  0  0  0  0
    0.6521    6.8181    1.6077 C   0  0  0  0  0
    0.6364    4.4047    1.4960 C   0  0  0  0  0
    4.3007   -1.7562    0.9127 C   0  0  0  0  0
    4.1136   -3.0311    1.4469 C   0  0  0  0  0
    5.5165   -1.0965    1.0918 C   0  0  0  0  0
    0.3181    6.7575    2.9608 C   0  0  0  0  0
    0.8000    3.1936    0.7419 C   0  0  0  0  0
    0.8727    1.1741    0.2991 C   0  0  0  0  0
    3.2053   -1.1011    0.1524 C   0  0  0  0  0
    0.8608   -0.2936    0.2404 C   0  0  0  0  0
    0.6367    1.9659    1.3146 N   0  0  0  0  0
    1.1191    3.1915   -0.5558 N   0  0  0  0  0
    2.0283   -0.8981    0.8508 N   0  0  0  0  0
    3.3874   -0.8018   -1.0248 O   0  0  0  0  0
    1.1687    1.8245   -0.8566 O   0  0  0  0  0
    2.9332   -3.6935    1.2848 O   0  0  0  0  0
    5.7204    0.1499    0.5790 O   0  0  0  0  0
    0.1232    8.2095    3.8637 Cl  0  0  0  0  0
  1  4  1  0  0  0
  2  8  1  0  0  0
  3  7  1  0  0  0
  5 11  1  0  0  0
  6 12  1  0  0  0
  8 13  1  0  0  0
  9 10  1  0  0  0
  9 15  1  0  0  0
 10 22  1  0  0  0
 11 23  1  0  0  0
 12 24  1  0  0  0
 13 17  1  0  0  0
 14 21  1  0  0  0
 15 19  1  0  0  0
 16 14  1  0  0  0
 16 19  1  0  0  0
 18 21  1  0  0  0
  1  5  2  0  0  0
  2  6  2  0  0  0
  3  8  2  0  0  0
  4 10  2  0  0  0
  7 12  2  0  0  0
  9 11  2  0  0  0
 13 18  2  0  0  0
 14 17  2  0  0  0
 15 20  2  0  0  0
M  END
> <rmsd>
0.26887995

$$$$
ZINC89675936


 25 27  0  0  0  0  0  0  0  0999 V2000
    2.2502   -2.5094   -2.0621 C   0  0  0  0  0
    2.3779   -3.2406   -0.8864 C   0  0  0  0  0
    2.8759   -1.2749   -2.1293 C   0  0  0  0  0
    3.1171   -2.7225    0.1712 C   0  0  0  0  0
    3.7041   -1.4785    0.0040 C   0  0  0  0  0
    4.5057   -0.8616    1.0865 C   0  0  0  0  0
   -0.6132    2.4237   -0.0696 C   0  0  0  0  0
   -0.0751    1.7712    1.2000 C   0  0  0  0  0
    0.5021    2.7056   -1.0715 C   0  0  0  0  0
    5.4306    4.9845    1.0301 C   0  0  0  0  0
    6.0434    4.3613    2.2802 C   0  0  0  0  0
    1.0450    2.5980    1.8271 C   0  0  0  0  0
    1.6233    3.5338   -0.4481 C   0  0  0  0  0
    4.3384    4.1044    0.4261 C   0  0  0  0  0
    4.9761    4.0049    3.3142 C   0  0  0  0  0
    2.1732    2.8761    0.8247 C   0  0  0  0  0
    3.2570    3.7499    1.4596 C   0  0  0  0  0
    3.8541    3.1349    2.7402 C   0  0  0  0  0
    5.1376   -0.4136    3.3137 C   0  0  0  0  0
    4.5387    0.9284    3.6896 C   0  0  0  0  0
    3.6022   -0.7387   -1.1230 N   0  0  0  0  0
    4.2810   -1.0794    2.3299 N   0  0  0  0  0
    4.3955    1.7698    2.4747 N   0  0  0  0  0
    3.2475   -3.4299    1.3226 O   0  0  0  0  0
    5.4743   -0.0608    0.5861 O   0  0  0  0  0
  1  2  1  0  0  0
  3 21  1  0  0  0
  4  5  1  0  0  0
  4 24  1  0  0  0
  5  6  1  0  0  0
  6 25  1  0  0  0
  7  8  1  0  0  0
  7  9  1  0  0  0
  8 12  1  0  0  0
  9 13  1  0  0  0
 10 11  1  0  0  0
 10 14  1  0  0  0
 11 15  1  0  0  0
 12 16  1  0  0  0
 13 16  1  0  0  0
 14 17  1  0  0  0
 15 18  1  0  0  0
 16 17  1  0  0  0
 17 18  1  0  0  0
 18 23  1  0  0  0
 19 20  1  0  0  0
 19 22  1  0  0  0
 20 23  1  0  0  0
  1  3  2  0  0  0
  2  4  2  0  0  0
  5 21  2  0  0  0
  6 22  2  0  0  0
M  CHG  1  23   1
M  END
> <rmsd>
0.258819729

$$$$
ZINC92122931


 24 26  0  0  0  0  0  0  0  0999 V2000
    6.4446   -2.9846    2.2586 C   0  0  0  0  0
   -3.7221   -1.0478    0.4314 C   0  0  0  0  0
    5.2452   -3.6772    2.0937 C   0  0  0  0  0
    6.5802   -1.6934    1.7484 C   0  0  0  0  0
   -2.6198   -0.3057   -0.0826 C   0  0  0  0  0
   -3.9848   -0.7393    1.7479 C   0  0  0  0  0
    4.3169   -1.7876    0.9084 C   0  0  0  0  0
    4.1814   -3.0787    1.4186 C   0  0  0  0  0
    5.5164   -1.0950    1.0733 C   0  0  0  0  0
   -2.0820    0.5422    0.8608 C   0  0  0  0  0
    3.1843   -1.1503    0.1887 C   0  0  0  0  0
    1.6956    2.5211   -0.2675 C   0  0  0  0  0
    1.5735    1.8664    1.1014 C   0  0  0  0  0
    0.3904    3.1711   -0.6873 C   0  0  0  0  0
   -0.9076    1.4983    0.7146 C   0  0  0  0  0
    0.4331    0.8385    1.1477 C   0  0  0  0  0
   -2.0080    2.8363   -1.1542 C   0  0  0  0  0
    0.8197   -0.4161    0.3498 C   0  0  0  0  0
    1.9953   -0.9863    0.9077 N   0  0  0  0  0
   -0.7436    2.1632   -0.6644 N   0  0  0  0  0
    3.3289   -0.8206   -0.9855 O   0  0  0  0  0
    3.0179   -3.7733    1.2697 O   0  0  0  0  0
    5.6703    0.1677    0.5835 O   0  0  0  0  0
   -2.9050    0.4409    2.3590 S   0  0  0  0  0
  1  3  1  0  0  0
  2  5  1  0  0  0
  4  9  1  0  0  0
  6 24  1  0  0  0
  7  8  1  0  0  0
  7 11  1  0  0  0
  8 22  1  0  0  0
  9 23  1  0  0  0
 10 24  1  0  0  0
 11 19  1  0  0  0
 12 13  1  0  0  0
 12 14  1  0  0  0
 13 16  1  0  0  0
 14 20  1  0  0  0
 15 10  1  0  0  0
 15 16  1  0  0  0
 15 20  1  0  0  0
 16 18  1  0  0  0
 17 20  1  0  0  0
 18 19  1  0  0  0
  1  4  2  0  0  0
  2  6  2  0  0  0
  3  8  2  0  0  0
  5 10  2  0  0  0
  7  9  2  0  0  0
 11 21  2  0  0  0
M  CHG  1  20   1
M  END
> <rmsd>
0.402781188

$$$$
ZINC74838737


 25 26  0  0  0  0  0  0  0  0999 V2000
    9.8522    1.8074    2.8830 C   0  0  0  0  0
    8.5060    2.0126    3.1619 C   0  0  0  0  0
   10.2358    0.7573    2.0512 C   0  0  0  0  0
    7.5435    1.1699    2.6060 C   0  0  0  0  0
    9.2780   -0.1056    1.4927 C   0  0  0  0  0
    7.9098    0.1067    1.7590 C   0  0  0  0  0
    1.9338   -1.0817   -0.5142 C   0  0  0  0  0
    3.8971   -2.2058    1.6765 C   0  0  0  0  0
    9.7542   -1.2003    0.5700 C   0  0  0  0  0
    8.7127   -2.2864    0.3248 C   0  0  0  0  0
    7.3650   -1.6549    0.0094 C   0  0  0  0  0
    6.8391   -0.8106    1.1852 C   0  0  0  0  0
    1.8612   -3.3157   -1.6290 C   0  0  0  0  0
    1.0524    1.7959   -1.4063 C   0  0  0  0  0
    0.7706    1.9215    1.0950 C   0  0  0  0  0
    6.2621   -1.7038    2.2941 C   0  0  0  0  0
    1.7061   -3.1069    0.9074 C   0  0  0  0  0
    1.3530   -2.4851   -0.4493 C   0  0  0  0  0
    1.4248    1.1849   -0.0640 C   0  0  0  0  0
    5.2583   -2.5479    1.7472 N   0  0  0  0  0
    3.1338   -3.2148    1.0947 N   0  0  0  0  0
    3.0467   -0.8067   -0.9436 O   0  0  0  0  0
    3.4405   -1.1379    2.0824 O   0  0  0  0  0
    5.7698   -0.0062    0.6719 O   0  0  0  0  0
    1.0165   -0.1865   -0.0413 O   0  0  0  0  0
  1  3  1  0  0  0
  2  4  1  0  0  0
  5  6  1  0  0  0
  7 25  1  0  0  0
  8 20  1  0  0  0
  8 21  1  0  0  0
  9  5  1  0  0  0
  9 10  1  0  0  0
 10 11  1  0  0  0
 11 12  1  0  0  0
 12  6  1  0  0  0
 12 16  1  0  0  0
 12 24  1  0  0  0
 13 18  1  0  0  0
 14 19  1  0  0  0
 15 19  1  0  0  0
 16 20  1  0  0  0
 17 18  1  0  0  0
 17 21  1  0  0  0
 18  7  1  0  0  0
 19 25  1  0  0  0
  1  2  2  0  0  0
  3  5  2  0  0  0
  4  6  2  0  0  0
  7 22  2  0  0  0
  8 23  2  0  0  0
M  END
> <rmsd>
0.478794247

$$$$
ZINC92124247


 25 27  0  0  0  0  0  0  0  0999 V2000
    6.4739   -3.2036    2.0089 C   0  0  0  0  0
    5.2152   -3.7960    1.9079 C   0  0  0  0  0
    6.6697   -1.8998    1.5530 C   0  0  0  0  0
    4.3481   -1.7812    0.8950 C   0  0  0  0  0
    4.1523   -3.0850    1.3509 C   0  0  0  0  0
    5.6068   -1.1887    0.9960 C   0  0  0  0  0
    3.2163   -1.0240    0.3011 C   0  0  0  0  0
   -0.0739    2.8514   -1.3474 C   0  0  0  0  0
    1.2837    2.1657   -1.4526 C   0  0  0  0  0
   -0.9752    2.1733   -0.3217 C   0  0  0  0  0
    1.9678    2.0548   -0.0902 C   0  0  0  0  0
   -0.2948    2.0625    1.0427 C   0  0  0  0  0
    1.2420    1.9511    4.6694 C   0  0  0  0  0
    0.5008   -0.0881    3.6249 C   0  0  0  0  0
    0.1973    1.7380    5.7613 C   0  0  0  0  0
   -0.5270   -0.2525    4.7408 C   0  0  0  0  0
    1.0889    1.3763    0.9853 C   0  0  0  0  0
    1.7758    1.5200    2.3565 C   0  0  0  0  0
    0.9353   -0.1279    0.6884 C   0  0  0  0  0
    0.7842    1.3383    3.4145 N   0  0  0  0  0
    2.1015   -0.8122    1.1206 N   0  0  0  0  0
    3.2953   -0.6420   -0.8635 O   0  0  0  0  0
   -0.0504    0.3440    5.9475 O   0  0  0  0  0
    2.9305   -3.6830    1.2627 O   0  0  0  0  0
    5.8201    0.0842    0.5576 O   0  0  0  0  0
  1  2  1  0  0  0
  3  6  1  0  0  0
  4  5  1  0  0  0
  4  7  1  0  0  0
  5 24  1  0  0  0
  6 25  1  0  0  0
  7 21  1  0  0  0
  8  9  1  0  0  0
  8 10  1  0  0  0
  9 11  1  0  0  0
 10 12  1  0  0  0
 11 17  1  0  0  0
 12 17  1  0  0  0
 13 15  1  0  0  0
 13 20  1  0  0  0
 14 16  1  0  0  0
 14 20  1  0  0  0
 15 23  1  0  0  0
 16 23  1  0  0  0
 17 18  1  0  0  0
 17 19  1  0  0  0
 18 20  1  0  0  0
 19 21  1  0  0  0
  1  3  2  0  0  0
  2  5  2  0  0  0
  4  6  2  0  0  0
  7 22  2  0  0  0
M  END
> <rmsd>
0.300712675

$$$$
ZINC69626956


 26 28  0  0  0  0  0  0  0  0999 V2000
    2.0659    2.7179   -0.8433 C   0  0  0  0  0
    2.7497    2.7438    0.3686 C   0  0  0  0  0
   -1.7316    0.6048    1.3443 C   0  0  0  0  0
    2.1692   -2.4601   -2.0363 C   0  0  0  0  0
    0.7801    2.1804   -0.9085 C   0  0  0  0  0
    2.1503    2.2324    1.5199 C   0  0  0  0  0
   -1.1321    1.1164    0.1930 C   0  0  0  0  0
   -1.0479    0.6307    2.5562 C   0  0  0  0  0
    2.3258   -3.2084   -0.8751 C   0  0  0  0  0
    2.7847   -1.2202   -2.0968 C   0  0  0  0  0
    0.1614    1.6612    0.2403 C   0  0  0  0  0
    0.8567    1.6875    1.4727 C   0  0  0  0  0
    0.2380    1.1681    2.6215 C   0  0  0  0  0
    3.0824   -2.7013    0.1755 C   0  0  0  0  0
    3.6571   -1.4507    0.0160 C   0  0  0  0  0
    4.4760   -0.8446    1.0917 C   0  0  0  0  0
    1.9735    0.0818    4.0997 C   0  0  0  0  0
    0.9167    1.1647    3.9563 C   0  0  0  0  0
    5.1495   -0.4265    3.3126 C   0  0  0  0  0
    4.3873   -0.2094    4.6083 C   0  0  0  0  0
    3.5273   -0.6943   -1.0970 N   0  0  0  0  0
    4.2778   -1.0834    2.3356 N   0  0  0  0  0
    3.2162    0.6131    4.4143 N   0  0  0  0  0
    1.7351   -1.1144    3.9546 O   0  0  0  0  0
    3.2409   -3.4256    1.3129 O   0  0  0  0  0
    5.4287   -0.0292    0.5845 O   0  0  0  0  0
  1  2  1  0  0  0
  3  7  1  0  0  0
  4  9  1  0  0  0
  5 11  1  0  0  0
  6 12  1  0  0  0
  8 13  1  0  0  0
 10 21  1  0  0  0
 11 12  1  0  0  0
 14 15  1  0  0  0
 14 25  1  0  0  0
 15 16  1  0  0  0
 16 26  1  0  0  0
 17 23  1  0  0  0
 18 13  1  0  0  0
 18 17  1  0  0  0
 19 20  1  0  0  0
 19 22  1  0  0  0
 20 23  1  0  0  0
  1  5  2  0  0  0
  2  6  2  0  0  0
  3  8  2  0  0  0
  4 10  2  0  0  0
  7 11  2  0  0  0
  9 14  2  0  0  0
 12 13  2  0  0  0
 15 21  2  0  0  0
 16 22  2  0  0  0
 17 24  2  0  0  0
M  END
> <rmsd>
0.440019011

$$$$
ZINC67641945


 24 25  0  0  0  0  0  0  0  0999 V2000
    6.3343   -2.9225    2.4311 C   0  0  0  0  0
    0.3773    1.9011   -0.8510 C   0  0  0  0  0
    1.3912    1.7547    1.3371 C   0  0  0  0  0
    5.1370   -3.6091    2.2305 C   0  0  0  0  0
    6.5137   -1.6559    1.8751 C   0  0  0  0  0
    0.3951    3.2933   -0.7661 C   0  0  0  0  0
    1.4091    3.1469    1.4219 C   0  0  0  0  0
    4.2982   -1.7625    0.9175 C   0  0  0  0  0
    0.8753    1.1318    0.2006 C   0  0  0  0  0
    4.1188   -3.0292    1.4735 C   0  0  0  0  0
    5.4956   -1.0759    1.1182 C   0  0  0  0  0
    0.9110    3.9162    0.3703 C   0  0  0  0  0
    3.2146   -1.1448    0.1102 C   0  0  0  0  0
   -0.4918   -2.4876    0.5948 C   0  0  0  0  0
    2.5027    6.1238   -0.2186 C   0  0  0  0  0
   -0.4519   -0.9663    0.6732 C   0  0  0  0  0
    0.8542   -0.3806    0.1096 C   0  0  0  0  0
    2.0104   -0.9482    0.7665 N   0  0  0  0  0
    3.4273   -0.8672   -1.0671 O   0  0  0  0  0
   -0.1129    6.1752   -0.3934 O   0  0  0  0  0
    0.9610    6.0449    1.8816 O   0  0  0  0  0
    2.9569   -3.7180    1.2896 O   0  0  0  0  0
    5.6921    0.1627    0.5843 O   0  0  0  0  0
    0.9334    5.6587    0.4775 S   0  0  0  0  0
  1  4  1  0  0  0
  2  9  1  0  0  0
  3  7  1  0  0  0
  5 11  1  0  0  0
  6 12  1  0  0  0
  8 10  1  0  0  0
  8 13  1  0  0  0
 10 22  1  0  0  0
 11 23  1  0  0  0
 13 18  1  0  0  0
 14 16  1  0  0  0
 15 24  1  0  0  0
 16 17  1  0  0  0
 17  9  1  0  0  0
 17 18  1  0  0  0
 24 12  1  0  0  0
  1  5  2  0  0  0
  2  6  2  0  0  0
  3  9  2  0  0  0
  4 10  2  0  0  0
  7 12  2  0  0  0
  8 11  2  0  0  0
 13 19  2  0  0  0
 24 20  2  0  0  0
 24 21  2  0  0  0
M  END
> <rmsd>
0.296599984

$$$$
ZINC67641945


 24 25  0  0  0  0  0  0  0  0999 V2000
    6.3345   -2.9225    2.4317 C   0  0  0  0  0
    0.3774    1.9010   -0.8506 C   0  0  0  0  0
    1.3914    1.7547    1.3374 C   0  0  0  0  0
    5.1371   -3.6091    2.2312 C   0  0  0  0  0
    6.5139   -1.6559    1.8755 C   0  0  0  0  0
    0.3952    3.2931   -0.7659 C   0  0  0  0  0
    1.4093    3.1469    1.4221 C   0  0  0  0  0
    4.2983   -1.7626    0.9180 C   0  0  0  0  0
    0.8754    1.1317    0.2010 C   0  0  0  0  0
    4.1189   -3.0292    1.4742 C   0  0  0  0  0
    5.4957   -1.0760    1.1187 C   0  0  0  0  0
    0.9112    3.9161    0.3705 C   0  0  0  0  0
    3.2148   -1.1449    0.1108 C   0  0  0  0  0
   -0.4917   -2.4877    0.5956 C   0  0  0  0  0
   -0.6243    6.0751    1.2278 C   0  0  0  0  0
   -0.4517   -0.9663    0.6739 C   0  0  0  0  0
    0.8543   -0.3807    0.1102 C   0  0  0  0  0
    2.0106   -0.9483    0.7671 N   0  0  0  0  0
    3.4274   -0.8674   -1.0665 O   0  0  0  0  0
    1.9916    6.0375    1.4033 O   0  0  0  0  0
    0.9181    6.2144   -0.8688 O   0  0  0  0  0
    2.9570   -3.7180    1.2904 O   0  0  0  0  0
    5.6922    0.1626    0.5846 O   0  0  0  0  0
    0.9337    5.6586    0.4775 S   0  0  0  0  0
  1  4  1  0  0  0
  2  9  1  0  0  0
  3  7  1  0  0  0
  5 11  1  0  0  0
  6 12  1  0  0  0
  8 10  1  0  0  0
  8 13  1  0  0  0
 10 22  1  0  0  0
 11 23  1  0  0  0
 13 18  1  0  0  0
 14 16  1  0  0  0
 15 24  1  0  0  0
 16 17  1  0  0  0
 17  9  1  0  0  0
 17 18  1  0  0  0
 24 12  1  0  0  0
  1  5  2  0  0  0
  2  6  2  0  0  0
  3  9  2  0  0  0
  4 10  2  0  0  0
  7 12  2  0  0  0
  8 11  2  0  0  0
 13 19  2  0  0  0
 24 20  2  0  0  0
 24 21  2  0  0  0
M  END
> <rmsd>
0.296529889

$$$$
ZINC00827409


 25 27  0  0  0  0  0  0  0  0999 V2000
   -0.3510    2.3358    0.2443 C   0  0  0  0  0
   -0.2217    1.3505    1.2232 C   0  0  0  0  0
    0.5895    2.4272   -0.7818 C   0  0  0  0  0
    6.8108   -3.9078   -0.4799 C   0  0  0  0  0
    7.5806   -2.8159   -0.8803 C   0  0  0  0  0
    0.8482    0.4568    1.1761 C   0  0  0  0  0
    1.6594    1.5334   -0.8289 C   0  0  0  0  0
    5.6621   -3.7079    0.2859 C   0  0  0  0  0
    7.2022   -1.5240   -0.5147 C   0  0  0  0  0
    1.7887    0.5482    0.1501 C   0  0  0  0  0
    5.2836   -2.4162    0.6514 C   0  0  0  0  0
    6.0536   -1.3241    0.2512 C   0  0  0  0  0
    3.7943   -0.9250    3.4046 C   0  0  0  0  0
    2.9196   -0.3963    0.1006 C   0  0  0  0  0
    4.3430   -2.2545    2.9836 C   0  0  0  0  0
    4.0268   -2.2172    1.4876 C   0  0  0  0  0
    3.8537   -0.4889    4.8303 C   0  0  0  0  0
    3.2878   -0.1902    2.4672 N   0  0  0  0  0
    3.3927   -0.8993    1.3047 N   0  0  0  0  0
    3.3791   -0.6681   -1.0071 O   0  0  0  0  0
    5.6982   -0.0558    0.5995 O   0  0  0  0  0
    3.0336   -3.2075    1.2222 O   0  0  0  0  0
    4.4403   -1.4278    5.6035 F   0  0  0  0  0
    4.5633    0.6526    4.9638 F   0  0  0  0  0
    2.6185   -0.2627    5.3274 F   0  0  0  0  0
  1  2  1  0  0  0
  3  7  1  0  0  0
  4  5  1  0  0  0
  6 10  1  0  0  0
  8 11  1  0  0  0
  9 12  1  0  0  0
 10 14  1  0  0  0
 12 21  1  0  0  0
 14 19  1  0  0  0
 15 13  1  0  0  0
 15 16  1  0  0  0
 16 11  1  0  0  0
 16 19  1  0  0  0
 16 22  1  0  0  0
 17 13  1  0  0  0
 17 23  1  0  0  0
 17 24  1  0  0  0
 17 25  1  0  0  0
 19 18  1  0  0  0
  1  3  2  0  0  0
  2  6  2  0  0  0
  4  8  2  0  0  0
  5  9  2  0  0  0
  7 10  2  0  0  0
 11 12  2  0  0  0
 13 18  2  0  0  0
 14 20  2  0  0  0
M  END
> <rmsd>
0.399428487

$$$$
ZINC67727365


 26 28  0  0  0  0  0  0  0  0999 V2000
    6.3362   -2.9211    2.4285 C   0  0  0  0  0
    0.4167    1.8995   -0.8609 C   0  0  0  0  0
    1.3926    1.7488    1.3441 C   0  0  0  0  0
    5.1395   -3.6090    2.2283 C   0  0  0  0  0
    6.5136   -1.6538    1.8733 C   0  0  0  0  0
    0.4504    3.2916   -0.7808 C   0  0  0  0  0
    1.4264    3.1411    1.4242 C   0  0  0  0  0
   -1.2249   -1.7802   -0.1623 C   0  0  0  0  0
   -0.8002   -0.7653    1.9764 C   0  0  0  0  0
   -2.3819   -2.3146    0.3815 C   0  0  0  0  0
   -1.9763   -1.3450    2.4244 C   0  0  0  0  0
    4.2974   -1.7623    0.9177 C   0  0  0  0  0
    0.8877    1.1281    0.2016 C   0  0  0  0  0
   -0.4246   -0.9919    0.6569 C   0  0  0  0  0
    0.9554    3.9124    0.3617 C   0  0  0  0  0
    4.1200   -3.0296    1.4729 C   0  0  0  0  0
    5.4942   -1.0744    1.1179 C   0  0  0  0  0
    3.2322   -1.1565    0.1267 C   0  0  0  0  0
    0.4920    5.9972   -0.6848 C   0  0  0  0  0
    0.8513   -0.3829    0.1145 C   0  0  0  0  0
   -2.7796   -2.1167    1.6583 N   0  0  0  0  0
    2.0080   -0.9504    0.7692 N   0  0  0  0  0
    3.4236   -0.8664   -1.0653 O   0  0  0  0  0
    2.9588   -3.7197    1.2894 O   0  0  0  0  0
    5.6887    0.1649    0.5849 O   0  0  0  0  0
    0.9888    5.2709    0.4383 O   0  0  0  0  0
  1  4  1  0  0  0
  2 13  1  0  0  0
  3  7  1  0  0  0
  5 17  1  0  0  0
  6 15  1  0  0  0
  8 14  1  0  0  0
  9 11  1  0  0  0
 10 21  1  0  0  0
 12 16  1  0  0  0
 12 18  1  0  0  0
 15 26  1  0  0  0
 16 24  1  0  0  0
 17 25  1  0  0  0
 18 22  1  0  0  0
 19 26  1  0  0  0
 20 13  1  0  0  0
 20 14  1  0  0  0
 20 22  1  0  0  0
  1  5  2  0  0  0
  2  6  2  0  0  0
  3 13  2  0  0  0
  4 16  2  0  0  0
  7 15  2  0  0  0
  8 10  2  0  0  0
  9 14  2  0  0  0
 11 21  2  0  0  0
 12 17  2  0  0  0
 18 23  2  0  0  0
M  END
> <rmsd>
0.303043306

$$$$
ZINC67727362


 26 28  0  0  0  0  0  0  0  0999 V2000
    6.3446   -2.9268    2.4162 C   0  0  0  0  0
   -1.2470   -1.7652   -0.1005 C   0  0  0  0  0
   -0.7662   -0.7398    2.0337 C   0  0  0  0  0
    5.1475   -3.6149    2.2187 C   0  0  0  0  0
    6.5187   -1.6575    1.8644 C   0  0  0  0  0
   -2.4173   -2.3120    0.4258 C   0  0  0  0  0
   -1.9365   -1.2867    2.5600 C   0  0  0  0  0
    0.4340    1.8902   -0.8631 C   0  0  0  0  0
    1.4139    1.7563    1.3293 C   0  0  0  0  0
    0.5030    3.2694   -0.7507 C   0  0  0  0  0
    1.4391    3.1416    1.3434 C   0  0  0  0  0
    4.2988   -1.7648    0.9172 C   0  0  0  0  0
   -0.4215   -0.9791    0.7034 C   0  0  0  0  0
    0.9003    1.1264    0.2012 C   0  0  0  0  0
   -2.7620   -2.0728    1.7561 C   0  0  0  0  0
    4.1247   -3.0340    1.4692 C   0  0  0  0  0
    5.4959   -1.0766    1.1148 C   0  0  0  0  0
    3.2300   -1.1573    0.1323 C   0  0  0  0  0
   -4.7020   -3.3987    1.3901 C   0  0  0  0  0
    0.8486   -0.3854    0.1320 C   0  0  0  0  0
    0.9953    3.9172    0.3290 N   0  0  0  0  0
    2.0082   -0.9541    0.7804 N   0  0  0  0  0
    3.4165   -0.8633   -1.0595 O   0  0  0  0  0
    2.9632   -3.7244    1.2881 O   0  0  0  0  0
    5.6872    0.1645    0.5848 O   0  0  0  0  0
   -3.9046   -2.6060    2.2685 O   0  0  0  0  0
  1  4  1  0  0  0
  2 13  1  0  0  0
  3  7  1  0  0  0
  5 17  1  0  0  0
  6 15  1  0  0  0
  8 14  1  0  0  0
  9 11  1  0  0  0
 10 21  1  0  0  0
 12 16  1  0  0  0
 12 18  1  0  0  0
 15 26  1  0  0  0
 16 24  1  0  0  0
 17 25  1  0  0  0
 18 22  1  0  0  0
 19 26  1  0  0  0
 20 13  1  0  0  0
 20 14  1  0  0  0
 20 22  1  0  0  0
  1  5  2  0  0  0
  2  6  2  0  0  0
  3 13  2  0  0  0
  4 16  2  0  0  0
  7 15  2  0  0  0
  8 10  2  0  0  0
  9 14  2  0  0  0
 11 21  2  0  0  0
 12 17  2  0  0  0
 18 23  2  0  0  0
M  END
> <rmsd>
0.308354259

$$$$
ZINC92123126


 26 28  0  0  0  0  0  0  0  0999 V2000
    6.3339   -2.9253    2.4312 C   0  0  0  0  0
    0.9701    1.9039   -0.9561 C   0  0  0  0  0
    0.7604    1.7582    1.4464 C   0  0  0  0  0
    0.9752    3.2962   -0.8713 C   0  0  0  0  0
    0.7655    3.1505    1.5312 C   0  0  0  0  0
    5.1356   -3.6103    2.2304 C   0  0  0  0  0
    6.5149   -1.6588    1.8752 C   0  0  0  0  0
    1.4433    7.4051    0.3232 C   0  0  0  0  0
    4.2994   -1.7627    0.9173 C   0  0  0  0  0
    0.8626    1.1350    0.2027 C   0  0  0  0  0
    0.8730    3.9195    0.3724 C   0  0  0  0  0
    4.1184   -3.0291    1.4733 C   0  0  0  0  0
    5.4977   -1.0776    1.1183 C   0  0  0  0  0
    0.1740    7.2256    0.9051 C   0  0  0  0  0
    1.8756    6.1320    0.0427 C   0  0  0  0  0
    3.2361   -1.1551    0.1250 C   0  0  0  0  0
   -0.7413    8.2678    1.3992 C   0  0  0  0  0
    3.1314    5.6586   -0.5717 C   0  0  0  0  0
   -0.4296   -0.9898    0.6587 C   0  0  0  0  0
    0.8571   -0.3757    0.1108 C   0  0  0  0  0
   -0.1773    5.9396    0.9896 N   0  0  0  0  0
    0.8777    5.2997    0.4572 N   0  0  0  0  0
    2.0120   -0.9454    0.7667 N   0  0  0  0  0
    3.4290   -0.8665   -1.0670 O   0  0  0  0  0
    2.9551   -3.7160    1.2905 O   0  0  0  0  0
    5.6953    0.1611    0.5847 O   0  0  0  0  0
  1  6  1  0  0  0
  2 10  1  0  0  0
  3  5  1  0  0  0
  4 11  1  0  0  0
  7 13  1  0  0  0
  8 14  1  0  0  0
  9 12  1  0  0  0
  9 16  1  0  0  0
 11 22  1  0  0  0
 12 25  1  0  0  0
 13 26  1  0  0  0
 15 22  1  0  0  0
 16 23  1  0  0  0
 17 14  1  0  0  0
 18 15  1  0  0  0
 19 20  1  0  0  0
 20 10  1  0  0  0
 20 23  1  0  0  0
 22 21  1  0  0  0
  1  7  2  0  0  0
  2  4  2  0  0  0
  3 10  2  0  0  0
  5 11  2  0  0  0
  6 12  2  0  0  0
  8 15  2  0  0  0
  9 13  2  0  0  0
 14 21  2  0  0  0
 16 24  2  0  0  0
M  END
> <rmsd>
0.290858179

$$$$
ZINC92123126


 26 28  0  0  0  0  0  0  0  0999 V2000
    6.3334   -2.9250    2.4310 C   0  0  0  0  0
    0.9697    1.9041   -0.9563 C   0  0  0  0  0
    0.7600    1.7585    1.4462 C   0  0  0  0  0
    0.9748    3.2964   -0.8715 C   0  0  0  0  0
    0.7651    3.1508    1.5310 C   0  0  0  0  0
    5.1352   -3.6101    2.2301 C   0  0  0  0  0
    6.5144   -1.6586    1.8750 C   0  0  0  0  0
    0.3259    7.3768    0.8479 C   0  0  0  0  0
    4.2990   -1.7625    0.9170 C   0  0  0  0  0
    0.8622    1.1352    0.2025 C   0  0  0  0  0
    0.8726    3.9198    0.3722 C   0  0  0  0  0
    4.1180   -3.0289    1.4730 C   0  0  0  0  0
    5.4973   -1.0774    1.1180 C   0  0  0  0  0
    1.5942    7.2614    0.2479 C   0  0  0  0  0
   -0.1151    6.0820    0.9706 C   0  0  0  0  0
    3.2357   -1.1549    0.1248 C   0  0  0  0  0
    2.5167    8.3500   -0.1154 C   0  0  0  0  0
   -1.3744    5.5454    1.5230 C   0  0  0  0  0
   -0.4300   -0.9896    0.6584 C   0  0  0  0  0
    0.8567   -0.3755    0.1105 C   0  0  0  0  0
    1.9368    5.9932    0.0065 N   0  0  0  0  0
    0.8773    5.2999    0.4569 N   0  0  0  0  0
    2.0116   -0.9452    0.7665 N   0  0  0  0  0
    3.4286   -0.8662   -1.0673 O   0  0  0  0  0
    2.9547   -3.7158    1.2902 O   0  0  0  0  0
    5.6949    0.1613    0.5845 O   0  0  0  0  0
  1  6  1  0  0  0
  2 10  1  0  0  0
  3  5  1  0  0  0
  4 11  1  0  0  0
  7 13  1  0  0  0
  8 14  1  0  0  0
  9 12  1  0  0  0
  9 16  1  0  0  0
 11 22  1  0  0  0
 12 25  1  0  0  0
 13 26  1  0  0  0
 15 22  1  0  0  0
 16 23  1  0  0  0
 17 14  1  0  0  0
 18 15  1  0  0  0
 19 20  1  0  0  0
 20 10  1  0  0  0
 20 23  1  0  0  0
 22 21  1  0  0  0
  1  7  2  0  0  0
  2  4  2  0  0  0
  3 10  2  0  0  0
  5 11  2  0  0  0
  6 12  2  0  0  0
  8 15  2  0  0  0
  9 13  2  0  0  0
 14 21  2  0  0  0
 16 24  2  0  0  0
M  END
> <rmsd>
0.29085815

$$$$
ZINC92124288


 21 22  0  0  0  0  0  0  0  0999 V2000
    1.1834    3.2681   -0.8612 C   0  0  0  0  0
    6.3411   -2.9344    2.4175 C   0  0  0  0  0
    1.1841    1.8744   -0.9184 C   0  0  0  0  0
    5.1409   -3.6170    2.2197 C   0  0  0  0  0
    6.5215   -1.6664    1.8648 C   0  0  0  0  0
    0.8509    3.9172    0.3278 C   0  0  0  0  0
    4.3017   -1.7640    0.9163 C   0  0  0  0  0
    0.8521    1.1298    0.2134 C   0  0  0  0  0
    4.1212   -3.0318    1.4691 C   0  0  0  0  0
    5.5018   -1.0813    1.1141 C   0  0  0  0  0
    0.5195    1.7789    1.4024 C   0  0  0  0  0
    0.5189    3.1726    1.4597 C   0  0  0  0  0
    3.2358   -1.1521    0.1307 C   0  0  0  0  0
   -1.1791    0.7008    2.6705 C   0  0  0  0  0
    0.8579   -0.3692    0.1295 C   0  0  0  0  0
    2.0150   -0.9428    0.7785 N   0  0  0  0  0
    3.4238   -0.8600   -1.0613 O   0  0  0  0  0
    2.9561   -3.7164    1.2892 O   0  0  0  0  0
    5.6990    0.1588    0.5837 O   0  0  0  0  0
    0.1954    1.0366    2.5008 O   0  0  0  0  0
    0.0739    4.0920    3.0567 Br  0  0  0  0  0
  1  3  1  0  0  0
  2  4  1  0  0  0
  5 10  1  0  0  0
  6 12  1  0  0  0
  7  9  1  0  0  0
  7 13  1  0  0  0
  8 11  1  0  0  0
  9 18  1  0  0  0
 10 19  1  0  0  0
 11 20  1  0  0  0
 12 21  1  0  0  0
 13 16  1  0  0  0
 14 20  1  0  0  0
 15  8  1  0  0  0
 15 16  1  0  0  0
  1  6  2  0  0  0
  2  5  2  0  0  0
  3  8  2  0  0  0
  4  9  2  0  0  0
  7 10  2  0  0  0
 11 12  2  0  0  0
 13 17  2  0  0  0
M  END
> <rmsd>
0.28465122

$$$$
ZINC92120428


 21 22  0  0  0  0  0  0  0  0999 V2000
    6.3399   -2.9339    2.4188 C   0  0  0  0  0
    5.1398   -3.6165    2.2210 C   0  0  0  0  0
    6.5206   -1.6662    1.8657 C   0  0  0  0  0
    0.5198    3.1691    1.4633 C   0  0  0  0  0
    0.8518    3.9167    0.3335 C   0  0  0  0  0
    1.1836    1.8772   -0.9185 C   0  0  0  0  0
    4.3011   -1.7640    0.9165 C   0  0  0  0  0
    0.8518    1.1296    0.2114 C   0  0  0  0  0
    4.1204   -3.0316    1.4697 C   0  0  0  0  0
    5.5012   -1.0812    1.1145 C   0  0  0  0  0
    0.5200    1.7756    1.4023 C   0  0  0  0  0
    1.1835    3.2708   -0.8574 C   0  0  0  0  0
    3.2355   -1.1524    0.1304 C   0  0  0  0  0
   -0.1330    1.8026    3.6890 C   0  0  0  0  0
    0.8576   -0.3694    0.1280 C   0  0  0  0  0
    2.0144   -0.9428    0.7776 N   0  0  0  0  0
    3.4239   -0.8608   -1.0617 O   0  0  0  0  0
    2.9553   -3.7162    1.2897 O   0  0  0  0  0
    5.6986    0.1587    0.5837 O   0  0  0  0  0
    0.1928    1.0608    2.5153 O   0  0  0  0  0
    1.6328    4.2845   -2.3882 Br  0  0  0  0  0
  1  2  1  0  0  0
  3 10  1  0  0  0
  4 11  1  0  0  0
  5 12  1  0  0  0
  6  8  1  0  0  0
  7  9  1  0  0  0
  7 13  1  0  0  0
  9 18  1  0  0  0
 10 19  1  0  0  0
 11 20  1  0  0  0
 12 21  1  0  0  0
 13 16  1  0  0  0
 14 20  1  0  0  0
 15  8  1  0  0  0
 15 16  1  0  0  0
  1  3  2  0  0  0
  2  9  2  0  0  0
  4  5  2  0  0  0
  6 12  2  0  0  0
  7 10  2  0  0  0
  8 11  2  0  0  0
 13 17  2  0  0  0
M  END
> <rmsd>
0.284678549

$$$$
ZINC92120428


 21 22  0  0  0  0  0  0  0  0999 V2000
    6.3338   -2.9292    2.4280 C   0  0  0  0  0
    5.1341   -3.6120    2.2281 C   0  0  0  0  0
    6.5165   -1.6628    1.8724 C   0  0  0  0  0
    1.1727    3.2964   -0.8276 C   0  0  0  0  0
    0.8321    3.9143    0.3756 C   0  0  0  0  0
    0.5129    1.7485    1.3977 C   0  0  0  0  0
    4.2998   -1.7623    0.9168 C   0  0  0  0  0
    0.8535    1.1305    0.1944 C   0  0  0  0  0
    4.1171   -3.0286    1.4724 C   0  0  0  0  0
    5.4995   -1.0794    1.1167 C   0  0  0  0  0
    1.1834    1.9045   -0.9182 C   0  0  0  0  0
    0.5022    3.1405    1.4882 C   0  0  0  0  0
    3.2368   -1.1523    0.1260 C   0  0  0  0  0
    1.8420    2.1845   -3.1862 C   0  0  0  0  0
    0.8592   -0.3687    0.1146 C   0  0  0  0  0
    2.0138   -0.9408    0.7690 N   0  0  0  0  0
    3.4289   -0.8635   -1.0662 O   0  0  0  0  0
    2.9524   -3.7133    1.2905 O   0  0  0  0  0
    5.6989    0.1592    0.5837 O   0  0  0  0  0
    1.5191    1.3173   -2.1010 O   0  0  0  0  0
    0.0410    3.9787    3.1185 Br  0  0  0  0  0
  1  2  1  0  0  0
  3 10  1  0  0  0
  4 11  1  0  0  0
  5 12  1  0  0  0
  6  8  1  0  0  0
  7  9  1  0  0  0
  7 13  1  0  0  0
  9 18  1  0  0  0
 10 19  1  0  0  0
 11 20  1  0  0  0
 12 21  1  0  0  0
 13 16  1  0  0  0
 14 20  1  0  0  0
 15  8  1  0  0  0
 15 16  1  0  0  0
  1  3  2  0  0  0
  2  9  2  0  0  0
  4  5  2  0  0  0
  6 12  2  0  0  0
  7 10  2  0  0  0
  8 11  2  0  0  0
 13 17  2  0  0  0
M  END
> <rmsd>
0.283351362

$$$$
ZINC31168788


 25 26  0  0  0  0  0  0  0  0999 V2000
    5.2519   -3.8781    1.7595 C   0  0  0  0  0
    6.5391   -3.3293    1.7963 C   0  0  0  0  0
    6.7353   -2.0055    1.3925 C   0  0  0  0  0
    4.3730   -1.7895    0.9206 C   0  0  0  0  0
    4.1728   -3.1087    1.3225 C   0  0  0  0  0
    5.6523   -1.2346    0.9542 C   0  0  0  0  0
    7.6729   -4.1193    2.2495 C   0  0  0  0  0
    8.0909   -1.4077    1.4247 C   0  0  0  0  0
    8.8850   -3.5531    2.2672 C   0  0  0  0  0
    0.5417   -0.0973    1.7579 C   0  0  0  0  0
   10.1225   -4.2636    2.7071 C   0  0  0  0  0
   -0.0025   -1.4511    3.6201 C   0  0  0  0  0
    3.0465   -1.7577   -1.7506 C   0  0  0  0  0
    0.1778    2.3123   -0.0225 C   0  0  0  0  0
    3.0010    0.3627    1.2144 C   0  0  0  0  0
    3.2099   -0.9705    0.4576 C   0  0  0  0  0
    1.5643    0.8976    1.2418 C   0  0  0  0  0
    8.3156   -0.2548    1.0806 O   0  0  0  0  0
   -0.4033   -0.5189    1.1031 O   0  0  0  0  0
    9.1030   -2.2159    1.8623 O   0  0  0  0  0
    2.9291   -3.6654    1.2966 O   0  0  0  0  0
    5.8037    0.0608    0.5521 O   0  0  0  0  0
    0.8619   -0.4753    3.0297 O   0  0  0  0  0
    3.4107   -0.6628   -0.9299 O   0  0  0  0  0
    1.1924    1.3164   -0.0612 O   0  0  0  0  0
  1  2  1  0  0  0
  2  7  1  0  0  0
  3  6  1  0  0  0
  3  8  1  0  0  0
  4  5  1  0  0  0
  5 21  1  0  0  0
  6 22  1  0  0  0
  8 20  1  0  0  0
  9 20  1  0  0  0
 10 23  1  0  0  0
 11  9  1  0  0  0
 12 23  1  0  0  0
 13 24  1  0  0  0
 14 25  1  0  0  0
 15 16  1  0  0  0
 15 17  1  0  0  0
 16  4  1  0  0  0
 16 24  1  0  0  0
 17 10  1  0  0  0
 17 25  1  0  0  0
  1  5  2  0  0  0
  2  3  2  0  0  0
  4  6  2  0  0  0
  7  9  2  0  0  0
  8 18  2  0  0  0
 10 19  2  0  0  0
M  END
> <rmsd>
0.274778008

$$$$
ZINC92124243


 26 28  0  0  0  0  0  0  0  0999 V2000
   -0.3061   -3.1983    5.1749 C   0  0  0  0  0
   -1.2553   -2.2055    4.9327 C   0  0  0  0  0
    1.0301   -2.8516    5.3763 C   0  0  0  0  0
    6.3239   -2.9447    2.4108 C   0  0  0  0  0
   -0.8686   -0.8659    4.8916 C   0  0  0  0  0
    1.4167   -1.5120    5.3352 C   0  0  0  0  0
    5.1159   -3.6141    2.2156 C   0  0  0  0  0
    6.5167   -1.6784    1.8587 C   0  0  0  0  0
    0.7108    3.2562    0.9778 C   0  0  0  0  0
    1.0834    3.3121   -0.3356 C   0  0  0  0  0
    4.2934   -1.7509    0.9160 C   0  0  0  0  0
    0.4674   -0.5192    5.0929 C   0  0  0  0  0
    4.1006   -3.0172    1.4682 C   0  0  0  0  0
    5.5015   -1.0815    1.1113 C   0  0  0  0  0
    0.8737    1.1808    0.2248 C   0  0  0  0  0
    3.2322   -1.1269    0.1339 C   0  0  0  0  0
    0.8863    0.9293    5.0483 C   0  0  0  0  0
    0.8630   -0.3181    0.1396 C   0  0  0  0  0
    1.3044    1.4596    3.6685 C   0  0  0  0  0
    0.2051    1.4124    2.5985 C   0  0  0  0  0
    0.5878    1.9255    1.2977 N   0  0  0  0  0
    1.1769    2.0139   -0.7759 N   0  0  0  0  0
    2.0154   -0.9048    0.7850 N   0  0  0  0  0
    3.4202   -0.8357   -1.0584 O   0  0  0  0  0
    2.9277   -3.6889    1.2909 O   0  0  0  0  0
    5.7107    0.1568    0.5814 O   0  0  0  0  0
  1  2  1  0  0  0
  3  6  1  0  0  0
  4  7  1  0  0  0
  5 12  1  0  0  0
  8 14  1  0  0  0
  9 21  1  0  0  0
 10 22  1  0  0  0
 11 13  1  0  0  0
 11 16  1  0  0  0
 13 25  1  0  0  0
 14 26  1  0  0  0
 15 21  1  0  0  0
 16 23  1  0  0  0
 17 12  1  0  0  0
 17 19  1  0  0  0
 18 15  1  0  0  0
 18 23  1  0  0  0
 19 20  1  0  0  0
 20 21  1  0  0  0
  1  3  2  0  0  0
  2  5  2  0  0  0
  4  8  2  0  0  0
  6 12  2  0  0  0
  7 13  2  0  0  0
  9 10  2  0  0  0
 11 14  2  0  0  0
 15 22  2  0  0  0
 16 24  2  0  0  0
M  CHG  1  22   1
M  END
> <rmsd>
0.266969502

$$$$
ZINC81349600


 26 28  0  0  0  0  0  0  0  0999 V2000
    0.8486    2.4551   -0.7323 C   0  0  0  0  0
   -0.0488    2.9247    0.2266 C   0  0  0  0  0
    2.1686    2.1782   -0.3759 C   0  0  0  0  0
    2.4270   -2.6886   -2.1418 C   0  0  0  0  0
    0.3736    3.1176    1.5420 C   0  0  0  0  0
    2.5909    2.3712    0.9394 C   0  0  0  0  0
    2.5133   -3.3703   -0.9331 C   0  0  0  0  0
    3.0053   -1.4320   -2.2204 C   0  0  0  0  0
    1.6935    2.8408    1.8983 C   0  0  0  0  0
    3.1661   -2.7829    0.1450 C   0  0  0  0  0
    3.7115   -1.5221   -0.0361 C   0  0  0  0  0
    4.4211   -0.8325    1.0666 C   0  0  0  0  0
    2.7906    0.8126    4.2201 C   0  0  0  0  0
    2.3972    6.2222    4.7176 C   0  0  0  0  0
    2.9340    4.8136    5.0467 C   0  0  0  0  0
    1.6229    5.5711    3.5525 C   0  0  0  0  0
    2.6920    4.4587    3.5650 C   0  0  0  0  0
    4.0262   -0.0192    4.5272 C   0  0  0  0  0
    4.8995   -0.2769    3.3078 C   0  0  0  0  0
    2.1526    3.0501    3.3253 C   0  0  0  0  0
    3.6477   -0.8291   -1.1950 N   0  0  0  0  0
    4.1310   -1.0142    2.3021 N   0  0  0  0  0
    3.1300    2.0585    3.7126 N   0  0  0  0  0
    1.6451    0.4078    4.3988 O   0  0  0  0  0
    3.2556   -3.4417    1.3288 O   0  0  0  0  0
    5.3850   -0.0100    0.5928 O   0  0  0  0  0
  1  2  1  0  0  0
  3  6  1  0  0  0
  4  7  1  0  0  0
  5  9  1  0  0  0
  8 21  1  0  0  0
 10 11  1  0  0  0
 10 25  1  0  0  0
 11 12  1  0  0  0
 12 26  1  0  0  0
 13 23  1  0  0  0
 14 15  1  0  0  0
 14 16  1  0  0  0
 15 17  1  0  0  0
 16 17  1  0  0  0
 17 20  1  0  0  0
 18 13  1  0  0  0
 18 19  1  0  0  0
 19 22  1  0  0  0
 20  9  1  0  0  0
 20 23  1  0  0  0
  1  3  2  0  0  0
  2  5  2  0  0  0
  4  8  2  0  0  0
  6  9  2  0  0  0
  7 10  2  0  0  0
 11 21  2  0  0  0
 12 22  2  0  0  0
 13 24  2  0  0  0
M  END
> <rmsd>
0.458851218

$$$$
ZINC67473434


 26 28  0  0  0  0  0  0  0  0999 V2000
    2.7118    1.8927    5.0411 C   0  0  0  0  0
    1.8945    2.2887    6.0997 C   0  0  0  0  0
    6.3350   -2.9303    2.4260 C   0  0  0  0  0
    1.1772    3.2814   -0.8315 C   0  0  0  0  0
    1.1848    1.8936   -0.9168 C   0  0  0  0  0
    2.1423    1.4905    3.8329 C   0  0  0  0  0
    5.1349   -3.6127    2.2269 C   0  0  0  0  0
    6.5174   -1.6637    1.8709 C   0  0  0  0  0
    0.5077    2.2825    5.9503 C   0  0  0  0  0
    0.8341    3.8545    0.3825 C   0  0  0  0  0
    4.2998   -1.7621    0.9174 C   0  0  0  0  0
    0.8539    1.1321    0.1985 C   0  0  0  0  0
    4.1174   -3.0287    1.4725 C   0  0  0  0  0
    5.4998   -1.0797    1.1165 C   0  0  0  0  0
    0.7555    1.4843    3.6834 C   0  0  0  0  0
   -0.0619    1.8804    4.7421 C   0  0  0  0  0
    0.5255    1.8015    1.3664 C   0  0  0  0  0
    3.2365   -1.1514    0.1275 C   0  0  0  0  0
    0.8591   -0.3671    0.1177 C   0  0  0  0  0
    0.5069    3.1478    1.4876 N   0  0  0  0  0
    2.0139   -0.9399    0.7713 N   0  0  0  0  0
    3.4281   -0.8619   -1.0646 O   0  0  0  0  0
    2.9529   -3.7136    1.2901 O   0  0  0  0  0
    5.6994    0.1588    0.5835 O   0  0  0  0  0
    0.1934    1.0860    2.4873 O   0  0  0  0  0
   -1.3948    1.8766    4.6043 F   0  0  0  0  0
  1  2  1  0  0  0
  3  7  1  0  0  0
  4  5  1  0  0  0
  6 15  1  0  0  0
  8 14  1  0  0  0
  9 16  1  0  0  0
 10 20  1  0  0  0
 11 13  1  0  0  0
 11 18  1  0  0  0
 12 17  1  0  0  0
 13 23  1  0  0  0
 14 24  1  0  0  0
 15 25  1  0  0  0
 16 26  1  0  0  0
 17 25  1  0  0  0
 18 21  1  0  0  0
 19 12  1  0  0  0
 19 21  1  0  0  0
  1  6  2  0  0  0
  2  9  2  0  0  0
  3  8  2  0  0  0
  4 10  2  0  0  0
  5 12  2  0  0  0
  7 13  2  0  0  0
 11 14  2  0  0  0
 15 16  2  0  0  0
 17 20  2  0  0  0
 18 22  2  0  0  0
M  END
> <rmsd>
0.28325972

$$$$
ZINC67473434


 26 28  0  0  0  0  0  0  0  0999 V2000
    0.5018    2.2821    5.9495 C   0  0  0  0  0
    1.8882    2.2894    6.1020 C   0  0  0  0  0
    6.3347   -2.9308    2.4259 C   0  0  0  0  0
    1.1771    3.2812   -0.8313 C   0  0  0  0  0
    1.1847    1.8935   -0.9168 C   0  0  0  0  0
   -0.0648    1.8792    4.7402 C   0  0  0  0  0
    5.1347   -3.6132    2.2266 C   0  0  0  0  0
    6.5172   -1.6641    1.8709 C   0  0  0  0  0
    2.7082    1.8939    5.0451 C   0  0  0  0  0
    0.8339    3.8542    0.3827 C   0  0  0  0  0
    4.2996   -1.7625    0.9173 C   0  0  0  0  0
    0.8538    1.1318    0.1984 C   0  0  0  0  0
    4.1172   -3.0291    1.4722 C   0  0  0  0  0
    5.4996   -1.0800    1.1165 C   0  0  0  0  0
    0.7551    1.4837    3.6834 C   0  0  0  0  0
    2.1417    1.4910    3.8357 C   0  0  0  0  0
    0.5252    1.8011    1.3663 C   0  0  0  0  0
    3.2363   -1.1517    0.1274 C   0  0  0  0  0
    0.8589   -0.3673    0.1175 C   0  0  0  0  0
    0.5066    3.1474    1.4877 N   0  0  0  0  0
    2.0137   -0.9402    0.7711 N   0  0  0  0  0
    3.4280   -0.8620   -1.0647 O   0  0  0  0  0
    2.9527   -3.7140    1.2897 O   0  0  0  0  0
    5.6992    0.1585    0.5837 O   0  0  0  0  0
    0.1930    1.0854    2.4872 O   0  0  0  0  0
    2.9344    1.1120    2.8240 F   0  0  0  0  0
  1  2  1  0  0  0
  3  7  1  0  0  0
  4  5  1  0  0  0
  6 15  1  0  0  0
  8 14  1  0  0  0
  9 16  1  0  0  0
 10 20  1  0  0  0
 11 13  1  0  0  0
 11 18  1  0  0  0
 12 17  1  0  0  0
 13 23  1  0  0  0
 14 24  1  0  0  0
 15 25  1  0  0  0
 16 26  1  0  0  0
 17 25  1  0  0  0
 18 21  1  0  0  0
 19 12  1  0  0  0
 19 21  1  0  0  0
  1  6  2  0  0  0
  2  9  2  0  0  0
  3  8  2  0  0  0
  4 10  2  0  0  0
  5 12  2  0  0  0
  7 13  2  0  0  0
 11 14  2  0  0  0
 15 16  2  0  0  0
 17 20  2  0  0  0
 18 22  2  0  0  0
M  END
> <rmsd>
0.283369154

$$$$
ZINC92124245


 25 27  0  0  0  0  0  0  0  0999 V2000
    4.7103    0.5947    4.1437 C   0  0  0  0  0
    3.3330    0.8137    4.1148 C   0  0  0  0  0
    5.5798    1.5528    3.6222 C   0  0  0  0  0
    6.3188   -2.9319    2.4229 C   0  0  0  0  0
    2.8252    1.9904    3.5644 C   0  0  0  0  0
    5.0720    2.7295    3.0718 C   0  0  0  0  0
    5.1143   -3.6067    2.2247 C   0  0  0  0  0
    6.5089   -1.6662    1.8680 C   0  0  0  0  0
   -0.2125    1.9899   -0.0618 C   0  0  0  0  0
    4.2897   -1.7503    0.9165 C   0  0  0  0  0
    3.6948    2.9485    3.0429 C   0  0  0  0  0
    4.0997   -3.0159    1.4714 C   0  0  0  0  0
    5.4943   -1.0755    1.1148 C   0  0  0  0  0
    0.8611    1.1658    0.2034 C   0  0  0  0  0
    1.8266    3.0979    0.5841 C   0  0  0  0  0
    3.2292   -1.1327    0.1284 C   0  0  0  0  0
    3.1460    4.2219    2.4469 C   0  0  0  0  0
    0.8567   -0.3334    0.1223 C   0  0  0  0  0
    2.8529    4.1042    0.9329 C   0  0  0  0  0
    2.0313    1.7994    0.5736 N   0  0  0  0  0
    2.0088   -0.9136    0.7740 N   0  0  0  0  0
    3.4209   -0.8440   -1.0640 O   0  0  0  0  0
    2.9302   -3.6927    1.2911 O   0  0  0  0  0
    5.7007    0.1622    0.5824 O   0  0  0  0  0
    0.2499    3.6265    0.1599 S   0  0  0  0  0
  1  2  1  0  0  0
  3  6  1  0  0  0
  4  7  1  0  0  0
  5 11  1  0  0  0
  8 13  1  0  0  0
  9 25  1  0  0  0
 10 12  1  0  0  0
 10 16  1  0  0  0
 12 23  1  0  0  0
 13 24  1  0  0  0
 14 20  1  0  0  0
 15 25  1  0  0  0
 16 21  1  0  0  0
 17 11  1  0  0  0
 17 19  1  0  0  0
 18 14  1  0  0  0
 18 21  1  0  0  0
 19 15  1  0  0  0
  1  3  2  0  0  0
  2  5  2  0  0  0
  4  8  2  0  0  0
  6 11  2  0  0  0
  7 12  2  0  0  0
  9 14  2  0  0  0
 10 13  2  0  0  0
 15 20  2  0  0  0
 16 22  2  0  0  0
M  END
> <rmsd>
0.287333012

$$$$
ZINC92124245


 25 27  0  0  0  0  0  0  0  0999 V2000
    5.2476    5.3183    1.6951 C   0  0  0  0  0
    4.6787    6.3645    0.9689 C   0  0  0  0  0
    5.0681    4.0000    1.2762 C   0  0  0  0  0
    6.3386   -2.9549    2.3901 C   0  0  0  0  0
    3.9302    6.0924   -0.1762 C   0  0  0  0  0
    4.3196    3.7279    0.1310 C   0  0  0  0  0
    5.1300   -3.6246    2.1993 C   0  0  0  0  0
    6.5263   -1.6854    1.8434 C   0  0  0  0  0
    0.5765    1.9149    1.3895 C   0  0  0  0  0
    4.2969   -1.7553    0.9151 C   0  0  0  0  0
    3.7507    4.7741   -0.5952 C   0  0  0  0  0
    4.1092   -3.0249    1.4618 C   0  0  0  0  0
    5.5056   -1.0856    1.1059 C   0  0  0  0  0
    0.8694    1.1761    0.2623 C   0  0  0  0  0
    1.1475    3.1830   -0.5774 C   0  0  0  0  0
    3.2299   -1.1284    0.1434 C   0  0  0  0  0
    2.9407    4.4789   -1.8341 C   0  0  0  0  0
    0.8598   -0.3224    0.1691 C   0  0  0  0  0
    1.4372    4.2695   -1.5382 C   0  0  0  0  0
    1.1967    1.9016   -0.8666 N   0  0  0  0  0
    2.0171   -0.9111    0.8037 N   0  0  0  0  0
    3.4096   -0.8307   -1.0486 O   0  0  0  0  0
    2.9359   -3.6969    1.2886 O   0  0  0  0  0
    5.7099    0.1558    0.5813 O   0  0  0  0  0
    0.7152    3.5869    1.0335 S   0  0  0  0  0
  1  2  1  0  0  0
  3  6  1  0  0  0
  4  7  1  0  0  0
  5 11  1  0  0  0
  8 13  1  0  0  0
  9 25  1  0  0  0
 10 12  1  0  0  0
 10 16  1  0  0  0
 12 23  1  0  0  0
 13 24  1  0  0  0
 14 20  1  0  0  0
 15 25  1  0  0  0
 16 21  1  0  0  0
 17 11  1  0  0  0
 17 19  1  0  0  0
 18 14  1  0  0  0
 18 21  1  0  0  0
 19 15  1  0  0  0
  1  3  2  0  0  0
  2  5  2  0  0  0
  4  8  2  0  0  0
  6 11  2  0  0  0
  7 12  2  0  0  0
  9 14  2  0  0  0
 10 13  2  0  0  0
 15 20  2  0  0  0
 16 22  2  0  0  0
M  END
> <rmsd>
0.270020664

$$$$
ZINC92120002


 25 26  0  0  0  0  0  0  0  0999 V2000
    6.3337   -2.9247    2.4310 C   0  0  0  0  0
    0.9697    1.9042   -0.9565 C   0  0  0  0  0
    0.7605    1.7583    1.4460 C   0  0  0  0  0
    5.1355   -3.6099    2.2301 C   0  0  0  0  0
    6.5147   -1.6583    1.8751 C   0  0  0  0  0
    0.9754    3.2964   -0.8715 C   0  0  0  0  0
    0.7662    3.1506    1.5310 C   0  0  0  0  0
    4.2992   -1.7623    0.9169 C   0  0  0  0  0
    0.8623    1.1351    0.2023 C   0  0  0  0  0
    0.8735    3.9197    0.3722 C   0  0  0  0  0
    4.1182   -3.0287    1.4731 C   0  0  0  0  0
    5.4974   -1.0771    1.1180 C   0  0  0  0  0
    3.2359   -1.1548    0.1248 C   0  0  0  0  0
   -0.4298   -0.9897    0.6582 C   0  0  0  0  0
    1.6123    5.9860   -0.5446 C   0  0  0  0  0
    0.8569   -0.3756    0.1103 C   0  0  0  0  0
    2.1454    7.2643    0.0482 C   0  0  0  0  0
    2.0119   -0.9452    0.7664 N   0  0  0  0  0
    3.4288   -0.8662   -1.0674 O   0  0  0  0  0
    2.9550   -3.7156    1.2902 O   0  0  0  0  0
    5.6950    0.1615    0.5844 O   0  0  0  0  0
    0.8803    5.2782    0.4550 O   0  0  0  0  0
    1.1334    8.0384    0.4978 F   0  0  0  0  0
    2.8341    7.9786   -0.8670 F   0  0  0  0  0
    2.9664    7.0158    1.0903 F   0  0  0  0  0
  1  4  1  0  0  0
  2  9  1  0  0  0
  3  7  1  0  0  0
  5 12  1  0  0  0
  6 10  1  0  0  0
  8 11  1  0  0  0
  8 13  1  0  0  0
 10 22  1  0  0  0
 11 20  1  0  0  0
 12 21  1  0  0  0
 13 18  1  0  0  0
 14 16  1  0  0  0
 15 17  1  0  0  0
 15 22  1  0  0  0
 16  9  1  0  0  0
 16 18  1  0  0  0
 17 23  1  0  0  0
 17 24  1  0  0  0
 17 25  1  0  0  0
  1  5  2  0  0  0
  2  6  2  0  0  0
  3  9  2  0  0  0
  4 11  2  0  0  0
  7 10  2  0  0  0
  8 12  2  0  0  0
 13 19  2  0  0  0
M  END
> <rmsd>
0.2910631

$$$$
ZINC92120002


 25 26  0  0  0  0  0  0  0  0999 V2000
    6.3343   -2.9249    2.4306 C   0  0  0  0  0
    0.3540    1.8997   -0.8467 C   0  0  0  0  0
    1.3766    1.7625    1.3378 C   0  0  0  0  0
    5.1361   -3.6101    2.2298 C   0  0  0  0  0
    6.5152   -1.6585    1.8747 C   0  0  0  0  0
    0.3596    3.2919   -0.7620 C   0  0  0  0  0
    1.3823    3.1548    1.4227 C   0  0  0  0  0
    4.2995   -1.7625    0.9169 C   0  0  0  0  0
    0.8624    1.1350    0.2032 C   0  0  0  0  0
    0.8738    3.9195    0.3726 C   0  0  0  0  0
    4.1187   -3.0290    1.4731 C   0  0  0  0  0
    5.4978   -1.0773    1.1178 C   0  0  0  0  0
    3.2361   -1.1549    0.1251 C   0  0  0  0  0
   -0.4296   -0.9899    0.6592 C   0  0  0  0  0
    0.7730    5.8505    1.7571 C   0  0  0  0  0
    0.8570   -0.3757    0.1111 C   0  0  0  0  0
    0.0664    7.1773    1.6553 C   0  0  0  0  0
    2.0122   -0.9454    0.7669 N   0  0  0  0  0
    3.4288   -0.8662   -1.0672 O   0  0  0  0  0
    2.9555   -3.7158    1.2903 O   0  0  0  0  0
    5.6952    0.1614    0.5844 O   0  0  0  0  0
    0.8803    5.2781    0.4547 O   0  0  0  0  0
    0.7490    8.0190    0.8486 F   0  0  0  0  0
   -0.0454    7.7666    2.8644 F   0  0  0  0  0
   -1.1740    7.0332    1.1430 F   0  0  0  0  0
  1  4  1  0  0  0
  2  9  1  0  0  0
  3  7  1  0  0  0
  5 12  1  0  0  0
  6 10  1  0  0  0
  8 11  1  0  0  0
  8 13  1  0  0  0
 10 22  1  0  0  0
 11 20  1  0  0  0
 12 21  1  0  0  0
 13 18  1  0  0  0
 14 16  1  0  0  0
 15 17  1  0  0  0
 15 22  1  0  0  0
 16  9  1  0  0  0
 16 18  1  0  0  0
 17 23  1  0  0  0
 17 24  1  0  0  0
 17 25  1  0  0  0
  1  5  2  0  0  0
  2  6  2  0  0  0
  3  9  2  0  0  0
  4 11  2  0  0  0
  7 10  2  0  0  0
  8 12  2  0  0  0
 13 19  2  0  0  0
M  END
> <rmsd>
0.290950537

$$$$
ZINC92107579


 26 28  0  0  0  0  0  0  0  0999 V2000
    6.3287   -2.9440    2.4099 C   0  0  0  0  0
    2.8167    4.6234    1.9844 C   0  0  0  0  0
    0.4945    5.2901    1.9989 C   0  0  0  0  0
    5.1221   -3.6160    2.2146 C   0  0  0  0  0
    6.5188   -1.6770    1.8583 C   0  0  0  0  0
    3.1482    5.7622    2.7183 C   0  0  0  0  0
    0.8261    6.4289    2.7329 C   0  0  0  0  0
    0.4176    2.1111   -0.7103 C   0  0  0  0  0
    4.2955   -1.7540    0.9157 C   0  0  0  0  0
    0.8836    1.1819    0.2390 C   0  0  0  0  0
    1.4898    4.3874    1.6245 C   0  0  0  0  0
    4.1055   -3.0210    1.4676 C   0  0  0  0  0
    5.5022   -1.0820    1.1112 C   0  0  0  0  0
    2.1530    6.6649    3.0927 C   0  0  0  0  0
    1.3603    1.9540    1.2700 C   0  0  0  0  0
    3.2329   -1.1319    0.1340 C   0  0  0  0  0
    1.9784    1.5715    2.5559 C   0  0  0  0  0
   -0.4270   -0.9316    0.6947 C   0  0  0  0  0
    0.8619   -0.3283    0.1403 C   0  0  0  0  0
    0.5832    3.3769   -0.3172 N   0  0  0  0  0
    1.1584    3.2484    0.8905 N   0  0  0  0  0
    2.0157   -0.9127    0.7854 N   0  0  0  0  0
    3.4201   -0.8399   -1.0583 O   0  0  0  0  0
    2.9340   -3.6950    1.2900 O   0  0  0  0  0
    5.7086    0.1569    0.5817 O   0  0  0  0  0
    2.4713    7.7584    3.7976 F   0  0  0  0  0
  1  4  1  0  0  0
  2 11  1  0  0  0
  3  7  1  0  0  0
  5 13  1  0  0  0
  6 14  1  0  0  0
  8 10  1  0  0  0
  9 12  1  0  0  0
  9 16  1  0  0  0
 11 21  1  0  0  0
 12 24  1  0  0  0
 13 25  1  0  0  0
 14 26  1  0  0  0
 15 21  1  0  0  0
 16 22  1  0  0  0
 17 15  1  0  0  0
 18 19  1  0  0  0
 19 10  1  0  0  0
 19 22  1  0  0  0
 21 20  1  0  0  0
  1  5  2  0  0  0
  2  6  2  0  0  0
  3 11  2  0  0  0
  4 12  2  0  0  0
  7 14  2  0  0  0
  8 20  2  0  0  0
  9 13  2  0  0  0
 10 15  2  0  0  0
 16 23  2  0  0  0
M  END
> <rmsd>
0.268238962

$$$$
ZINC92107577


 26 28  0  0  0  0  0  0  0  0999 V2000
    6.4992   -3.0852    2.0769 C   0  0  0  0  0
    3.3998    4.6853    0.9324 C   0  0  0  0  0
    1.2074    5.5953    0.4826 C   0  0  0  0  0
    5.2763   -3.7447    1.9540 C   0  0  0  0  0
    6.6367   -1.7778    1.6104 C   0  0  0  0  0
    3.8537    5.9551    1.2890 C   0  0  0  0  0
    1.6612    6.8650    0.8393 C   0  0  0  0  0
    0.8176    1.7260   -1.0432 C   0  0  0  0  0
    4.3282   -1.7894    0.8978 C   0  0  0  0  0
    1.0809    1.1197    0.1998 C   0  0  0  0  0
    2.0767    4.5053    0.5291 C   0  0  0  0  0
    4.1908   -3.0969    1.3644 C   0  0  0  0  0
    5.5511   -1.1300    1.0209 C   0  0  0  0  0
    2.9844    7.0449    1.2426 C   0  0  0  0  0
    1.6051    2.1291    0.9698 C   0  0  0  0  0
    3.1934   -1.1121    0.2808 C   0  0  0  0  0
    2.0802    2.1280    2.3685 C   0  0  0  0  0
    0.2297   -1.1449   -0.5394 C   0  0  0  0  0
    0.8387   -0.3214    0.5937 C   0  0  0  0  0
    1.1472    3.0201   -1.0658 N   0  0  0  0  0
    1.6229    3.2354    0.1725 N   0  0  0  0  0
    2.0503   -0.9501    1.0688 N   0  0  0  0  0
    3.2585   -0.7261   -0.8975 O   0  0  0  0  0
    3.0046   -3.7597    1.2553 O   0  0  0  0  0
    5.7071    0.1478    0.5726 O   0  0  0  0  0
    3.4203    8.2643    1.5851 F   0  0  0  0  0
  1  4  1  0  0  0
  2 11  1  0  0  0
  3  7  1  0  0  0
  5 13  1  0  0  0
  6 14  1  0  0  0
  8 10  1  0  0  0
  9 12  1  0  0  0
  9 16  1  0  0  0
 11 21  1  0  0  0
 12 24  1  0  0  0
 13 25  1  0  0  0
 14 26  1  0  0  0
 15 21  1  0  0  0
 16 22  1  0  0  0
 17 15  1  0  0  0
 18 19  1  0  0  0
 19 10  1  0  0  0
 19 22  1  0  0  0
 21 20  1  0  0  0
  1  5  2  0  0  0
  2  6  2  0  0  0
  3 11  2  0  0  0
  4 12  2  0  0  0
  7 14  2  0  0  0
  8 20  2  0  0  0
  9 13  2  0  0  0
 10 15  2  0  0  0
 16 23  2  0  0  0
M  END
> <rmsd>
0.426550537

$$$$
ZINC92124467


 25 27  0  0  0  0  0  0  0  0999 V2000
    6.3429   -2.9662    2.3658 C   0  0  0  0  0
    2.2505    5.2887   -1.1191 C   0  0  0  0  0
    3.9812    3.6331   -0.8016 C   0  0  0  0  0
    5.1307   -3.6308    2.1807 C   0  0  0  0  0
    6.5307   -1.6943    1.8248 C   0  0  0  0  0
    3.1925    6.1726   -1.6451 C   0  0  0  0  0
    4.9232    4.5170   -1.3276 C   0  0  0  0  0
    2.6447    4.0189   -0.6972 C   0  0  0  0  0
    4.2939   -1.7517    0.9136 C   0  0  0  0  0
    4.1062   -3.0236    1.4546 C   0  0  0  0  0
    5.5063   -1.0870    1.0987 C   0  0  0  0  0
    4.5289    5.7868   -1.7494 C   0  0  0  0  0
    1.6714    3.1039   -0.1531 C   0  0  0  0  0
    0.4965    3.2157    0.5481 C   0  0  0  0  0
    0.8629    1.1657    0.2541 C   0  0  0  0  0
    3.2031   -1.1050    0.1397 C   0  0  0  0  0
   -0.2007    4.4270    1.0054 C   0  0  0  0  0
    0.8556   -0.3042    0.2021 C   0  0  0  0  0
   -0.0170    1.9704    0.8060 N   0  0  0  0  0
    2.0191   -0.9008    0.8263 N   0  0  0  0  0
    3.3946   -0.8130   -1.0379 O   0  0  0  0  0
    1.9180    1.7787   -0.3490 O   0  0  0  0  0
    2.9293   -3.6908    1.2868 O   0  0  0  0  0
    5.7107    0.1566    0.5796 O   0  0  0  0  0
    5.6911    6.8763   -2.4004 Cl  0  0  0  0  0
  1  4  1  0  0  0
  2  8  1  0  0  0
  3  7  1  0  0  0
  5 11  1  0  0  0
  6 12  1  0  0  0
  8 13  1  0  0  0
  9 10  1  0  0  0
  9 16  1  0  0  0
 10 23  1  0  0  0
 11 24  1  0  0  0
 12 25  1  0  0  0
 13 22  1  0  0  0
 14 19  1  0  0  0
 15 22  1  0  0  0
 16 20  1  0  0  0
 17 14  1  0  0  0
 18 15  1  0  0  0
 18 20  1  0  0  0
  1  5  2  0  0  0
  2  6  2  0  0  0
  3  8  2  0  0  0
  4 10  2  0  0  0
  7 12  2  0  0  0
  9 11  2  0  0  0
 13 14  2  0  0  0
 15 19  2  0  0  0
 16 21  2  0  0  0
M  END
> <rmsd>
0.290028244

$$$$
ZINC92124467


 25 27  0  0  0  0  0  0  0  0999 V2000
    6.3529   -2.9831    2.3472 C   0  0  0  0  0
    0.7921    5.3362   -1.5866 C   0  0  0  0  0
    2.2670    3.7285   -2.6245 C   0  0  0  0  0
    5.1370   -3.6424    2.1668 C   0  0  0  0  0
    6.5419   -1.7093    1.8110 C   0  0  0  0  0
    1.0625    6.2448   -2.6097 C   0  0  0  0  0
    2.5375    4.6371   -3.6475 C   0  0  0  0  0
    1.3943    4.0780   -1.5939 C   0  0  0  0  0
    4.2993   -1.7544    0.9134 C   0  0  0  0  0
    4.1103   -3.0281    1.4498 C   0  0  0  0  0
    5.5152   -1.0951    1.0940 C   0  0  0  0  0
    1.9353    5.8953   -3.6402 C   0  0  0  0  0
    1.1153    3.1375   -0.5364 C   0  0  0  0  0
    0.7860    3.2180    0.7938 C   0  0  0  0  0
    0.8750    1.1784    0.2886 C   0  0  0  0  0
    3.2061   -1.1002    0.1492 C   0  0  0  0  0
    0.5972    4.4104    1.6334 C   0  0  0  0  0
    0.8620   -0.2911    0.2299 C   0  0  0  0  0
    0.6331    1.9595    1.3170 N   0  0  0  0  0
    2.0271   -0.8948    0.8441 N   0  0  0  0  0
    3.3913   -0.8035   -1.0281 O   0  0  0  0  0
    1.1755    1.8192   -0.8742 O   0  0  0  0  0
    2.9299   -3.6902    1.2862 O   0  0  0  0  0
    5.7210    0.1501    0.5792 O   0  0  0  0  0
    2.2676    7.0153   -4.9038 Cl  0  0  0  0  0
  1  4  1  0  0  0
  2  8  1  0  0  0
  3  7  1  0  0  0
  5 11  1  0  0  0
  6 12  1  0  0  0
  8 13  1  0  0  0
  9 10  1  0  0  0
  9 16  1  0  0  0
 10 23  1  0  0  0
 11 24  1  0  0  0
 12 25  1  0  0  0
 13 22  1  0  0  0
 14 19  1  0  0  0
 15 22  1  0  0  0
 16 20  1  0  0  0
 17 14  1  0  0  0
 18 15  1  0  0  0
 18 20  1  0  0  0
  1  5  2  0  0  0
  2  6  2  0  0  0
  3  8  2  0  0  0
  4 10  2  0  0  0
  7 12  2  0  0  0
  9 11  2  0  0  0
 13 14  2  0  0  0
 15 19  2  0  0  0
 16 21  2  0  0  0
M  END
> <rmsd>
0.268129975

$$$$
ZINC73856368


 26 27  0  0  0  0  0  0  0  0999 V2000
    2.4236   -2.6835   -2.1415 C   0  0  0  0  0
    2.6093    2.9597    0.8490 C   0  0  0  0  0
    2.5091   -3.3654   -0.9329 C   0  0  0  0  0
    2.1910    2.7513   -0.4652 C   0  0  0  0  0
   -0.0446    2.2808    0.3210 C   0  0  0  0  0
    3.0038   -1.4277   -2.2202 C   0  0  0  0  0
    1.7007    2.8285    1.8992 C   0  0  0  0  0
    3.1630   -2.7789    0.1450 C   0  0  0  0  0
    0.8640    2.4120   -0.7292 C   0  0  0  0  0
    0.3738    2.4891    1.6353 C   0  0  0  0  0
    3.7103   -1.5190   -0.0361 C   0  0  0  0  0
    4.4210   -0.8303    1.0665 C   0  0  0  0  0
    2.7937    0.8169    4.2205 C   0  0  0  0  0
    3.1710    4.7284    4.9575 C   0  0  0  0  0
    4.0280   -0.0167    4.5271 C   0  0  0  0  0
    2.7010    4.4806    3.5294 C   0  0  0  0  0
    4.9009   -0.2754    3.3076 C   0  0  0  0  0
    2.1587    3.0555    3.3258 C   0  0  0  0  0
    3.6472   -0.8257   -1.1950 N   0  0  0  0  0
    4.1310   -1.0116    2.3019 N   0  0  0  0  0
    3.1349    2.0624    3.7128 N   0  0  0  0  0
    1.6476    0.4139    4.3994 O   0  0  0  0  0
    3.2518   -3.4379    1.3288 O   0  0  0  0  0
    5.3861   -0.0094    0.5925 O   0  0  0  0  0
    0.4621    2.2126   -1.9913 F   0  0  0  0  0
   -0.5065    2.3606    2.6379 F   0  0  0  0  0
  1  3  1  0  0  0
  2  7  1  0  0  0
  4  9  1  0  0  0
  5 10  1  0  0  0
  6 19  1  0  0  0
  8 11  1  0  0  0
  8 23  1  0  0  0
  9 25  1  0  0  0
 10 26  1  0  0  0
 11 12  1  0  0  0
 12 24  1  0  0  0
 13 21  1  0  0  0
 14 16  1  0  0  0
 15 13  1  0  0  0
 15 17  1  0  0  0
 16 18  1  0  0  0
 17 20  1  0  0  0
 18  7  1  0  0  0
 18 21  1  0  0  0
  1  6  2  0  0  0
  2  4  2  0  0  0
  3  8  2  0  0  0
  5  9  2  0  0  0
  7 10  2  0  0  0
 11 19  2  0  0  0
 12 20  2  0  0  0
 13 22  2  0  0  0
M  END
> <rmsd>
0.457733721

$$$$
ZINC92108284


 27 29  0  0  0  0  0  0  0  0999 V2000
    6.3340   -2.9249    2.4313 C   0  0  0  0  0
   -0.0978    9.5094    0.1623 C   0  0  0  0  0
   -0.1475    8.1468   -0.1106 C   0  0  0  0  0
    0.9696    1.9037   -0.9558 C   0  0  0  0  0
    0.7606    1.7578    1.4467 C   0  0  0  0  0
    5.1359   -3.6101    2.2304 C   0  0  0  0  0
    6.5149   -1.6585    1.8753 C   0  0  0  0  0
    0.9751    3.2959   -0.8708 C   0  0  0  0  0
    0.7661    3.1501    1.5317 C   0  0  0  0  0
    1.1291   10.1459    0.0655 C   0  0  0  0  0
    2.1918    8.1998   -0.5357 C   0  0  0  0  0
    4.2995   -1.7626    0.9173 C   0  0  0  0  0
    0.8622    1.1346    0.2029 C   0  0  0  0  0
    1.0148    7.4720   -0.4669 C   0  0  0  0  0
    0.8733    3.9191    0.3729 C   0  0  0  0  0
    4.1185   -3.0291    1.4735 C   0  0  0  0  0
    5.4976   -1.0773    1.1183 C   0  0  0  0  0
    3.2360   -1.1551    0.1253 C   0  0  0  0  0
   -0.4297   -0.9903    0.6589 C   0  0  0  0  0
    0.9939    6.0023   -0.7680 C   0  0  0  0  0
    0.8569   -0.3761    0.1110 C   0  0  0  0  0
    2.2793    9.5239   -0.2777 N   0  0  0  0  0
    2.0119   -0.9456    0.7669 N   0  0  0  0  0
    3.4288   -0.8665   -1.0670 O   0  0  0  0  0
    2.9554   -3.7161    1.2906 O   0  0  0  0  0
    5.6951    0.1613    0.5848 O   0  0  0  0  0
    0.8801    5.2777    0.4557 O   0  0  0  0  0
  1  6  1  0  0  0
  2 10  1  0  0  0
  3 14  1  0  0  0
  4 13  1  0  0  0
  5  9  1  0  0  0
  7 17  1  0  0  0
  8 15  1  0  0  0
 11 22  1  0  0  0
 12 16  1  0  0  0
 12 18  1  0  0  0
 15 27  1  0  0  0
 16 25  1  0  0  0
 17 26  1  0  0  0
 18 23  1  0  0  0
 19 21  1  0  0  0
 20 14  1  0  0  0
 20 27  1  0  0  0
 21 13  1  0  0  0
 21 23  1  0  0  0
  1  7  2  0  0  0
  2  3  2  0  0  0
  4  8  2  0  0  0
  5 13  2  0  0  0
  6 16  2  0  0  0
  9 15  2  0  0  0
 10 22  2  0  0  0
 11 14  2  0  0  0
 12 17  2  0  0  0
 18 24  2  0  0  0
M  END
> <rmsd>
0.290939659

$$$$
ZINC92108284


 27 29  0  0  0  0  0  0  0  0999 V2000
    6.3341   -2.9247    2.4313 C   0  0  0  0  0
    2.1863    9.5617   -0.2507 C   0  0  0  0  0
    2.1972    8.2008   -0.5358 C   0  0  0  0  0
    0.9697    1.9039   -0.9559 C   0  0  0  0  0
    0.7607    1.7580    1.4466 C   0  0  0  0  0
    5.1360   -3.6099    2.2303 C   0  0  0  0  0
    6.5150   -1.6583    1.8752 C   0  0  0  0  0
    0.9752    3.2962   -0.8709 C   0  0  0  0  0
    0.7662    3.1503    1.5316 C   0  0  0  0  0
    0.9767   10.1421    0.0955 C   0  0  0  0  0
   -0.1422    8.1462   -0.1110 C   0  0  0  0  0
    4.2996   -1.7624    0.9173 C   0  0  0  0  0
    0.8623    1.1348    0.2028 C   0  0  0  0  0
    1.0149    7.4722   -0.4670 C   0  0  0  0  0
    0.8734    3.9193    0.3728 C   0  0  0  0  0
    4.1186   -3.0289    1.4734 C   0  0  0  0  0
    5.4977   -1.0771    1.1182 C   0  0  0  0  0
    3.2361   -1.1549    0.1252 C   0  0  0  0  0
   -0.4296   -0.9901    0.6588 C   0  0  0  0  0
    0.9940    6.0025   -0.7681 C   0  0  0  0  0
    0.8570   -0.3759    0.1109 C   0  0  0  0  0
   -0.1919    9.4671    0.1729 N   0  0  0  0  0
    2.0120   -0.9454    0.7668 N   0  0  0  0  0
    3.4289   -0.8663   -1.0671 O   0  0  0  0  0
    2.9555   -3.7159    1.2905 O   0  0  0  0  0
    5.6952    0.1615    0.5847 O   0  0  0  0  0
    0.8802    5.2779    0.4556 O   0  0  0  0  0
  1  6  1  0  0  0
  2 10  1  0  0  0
  3 14  1  0  0  0
  4 13  1  0  0  0
  5  9  1  0  0  0
  7 17  1  0  0  0
  8 15  1  0  0  0
 11 22  1  0  0  0
 12 16  1  0  0  0
 12 18  1  0  0  0
 15 27  1  0  0  0
 16 25  1  0  0  0
 17 26  1  0  0  0
 18 23  1  0  0  0
 19 21  1  0  0  0
 20 14  1  0  0  0
 20 27  1  0  0  0
 21 13  1  0  0  0
 21 23  1  0  0  0
  1  7  2  0  0  0
  2  3  2  0  0  0
  4  8  2  0  0  0
  5 13  2  0  0  0
  6 16  2  0  0  0
  9 15  2  0  0  0
 10 22  2  0  0  0
 11 14  2  0  0  0
 12 17  2  0  0  0
 18 24  2  0  0  0
M  END
> <rmsd>
0.290939569

$$$$
ZINC72996934


 27 29  0  0  0  0  0  0  0  0999 V2000
    0.8313    2.4092   -0.7218 C   0  0  0  0  0
   -0.0603    2.8899    0.2370 C   0  0  0  0  0
    2.1542    2.1391   -0.3710 C   0  0  0  0  0
    2.4238   -2.6827   -2.1419 C   0  0  0  0  0
    0.3708    3.1008    1.5467 C   0  0  0  0  0
    2.5853    2.3501    0.9387 C   0  0  0  0  0
    2.5079   -3.3639   -0.9327 C   0  0  0  0  0
    3.0057   -1.4277   -2.2210 C   0  0  0  0  0
    1.6937    2.8308    1.8975 C   0  0  0  0  0
    3.1619   -2.7776    0.1452 C   0  0  0  0  0
    3.7108   -1.5184   -0.0364 C   0  0  0  0  0
    4.4220   -0.8299    1.0661 C   0  0  0  0  0
    2.7949    0.8214    4.2181 C   0  0  0  0  0
    2.2353    6.7750    4.0192 C   0  0  0  0  0
    3.1932    6.2405    5.0854 C   0  0  0  0  0
    1.6553    5.5505    3.3179 C   0  0  0  0  0
    3.1291    4.7199    4.9865 C   0  0  0  0  0
    2.7004    4.4628    3.5454 C   0  0  0  0  0
    4.0280   -0.0137    4.5260 C   0  0  0  0  0
    4.9011   -0.2743    3.3071 C   0  0  0  0  0
    2.1632    3.0601    3.3215 C   0  0  0  0  0
    3.6493   -0.8259   -1.1958 N   0  0  0  0  0
    4.1309   -1.0102    2.3015 N   0  0  0  0  0
    3.1398    2.0641    3.7106 N   0  0  0  0  0
    1.6481    0.4198    4.3966 O   0  0  0  0  0
    3.2491   -3.4359    1.3294 O   0  0  0  0  0
    5.3882   -0.0105    0.5921 O   0  0  0  0  0
  1  2  1  0  0  0
  3  6  1  0  0  0
  4  7  1  0  0  0
  5  9  1  0  0  0
  8 22  1  0  0  0
 10 11  1  0  0  0
 10 26  1  0  0  0
 11 12  1  0  0  0
 12 27  1  0  0  0
 13 24  1  0  0  0
 14 15  1  0  0  0
 14 16  1  0  0  0
 15 17  1  0  0  0
 16 18  1  0  0  0
 17 18  1  0  0  0
 18 21  1  0  0  0
 19 13  1  0  0  0
 19 20  1  0  0  0
 20 23  1  0  0  0
 21  9  1  0  0  0
 21 24  1  0  0  0
  1  3  2  0  0  0
  2  5  2  0  0  0
  4  8  2  0  0  0
  6  9  2  0  0  0
  7 10  2  0  0  0
 11 22  2  0  0  0
 12 23  2  0  0  0
 13 25  2  0  0  0
M  END
> <rmsd>
0.451196879

$$$$
ZINC77825758


 26 26  0  0  0  0  0  0  0  0999 V2000
    2.0597    1.7889    0.1817 C   0  0  0  0  0
    0.1170    1.0919   -1.0743 C   0  0  0  0  0
    1.4518    3.0176    0.4400 C   0  0  0  0  0
   -0.4908    2.3204   -0.8159 C   0  0  0  0  0
    1.3923    0.8262   -0.5755 C   0  0  0  0  0
    0.1766    3.2833   -0.0587 C   0  0  0  0  0
    2.0399   -0.4823   -0.8503 C   0  0  0  0  0
    3.8210   -2.4854    1.6684 C   0  0  0  0  0
    9.7703    2.2618    1.7050 C   0  0  0  0  0
    9.1008    2.2052    4.1138 C   0  0  0  0  0
    6.9529   -1.8512   -0.3340 C   0  0  0  0  0
    7.9380    0.6674    2.5007 C   0  0  0  0  0
    8.0291   -0.2426    1.2657 C   0  0  0  0  0
    1.1725   -3.8922   -0.2801 C   0  0  0  0  0
    1.6580   -2.8879   -1.3233 C   0  0  0  0  0
    1.6431   -3.5827    1.1394 C   0  0  0  0  0
    6.1782   -1.7980    2.0860 C   0  0  0  0  0
    9.2677    1.3700    2.8414 C   0  0  0  0  0
    6.7123   -0.9734    0.9027 C   0  0  0  0  0
    1.1834   -1.5552   -1.0691 N   0  0  0  0  0
    3.0826   -3.5933    1.2612 N   0  0  0  0  0
    5.1864   -2.7679    1.6995 N   0  0  0  0  0
    3.2659   -0.5567   -0.8509 O   0  0  0  0  0
    3.3342   -1.3950    1.9643 O   0  0  0  0  0
    5.7233    0.0041    0.5669 O   0  0  0  0  0
   -0.4073    4.4629    0.1894 F   0  0  0  0  0
  1  5  1  0  0  0
  2  4  1  0  0  0
  3  6  1  0  0  0
  5  7  1  0  0  0
  6 26  1  0  0  0
  7 20  1  0  0  0
  8 21  1  0  0  0
  8 22  1  0  0  0
  9 18  1  0  0  0
 10 18  1  0  0  0
 11 19  1  0  0  0
 12 13  1  0  0  0
 12 18  1  0  0  0
 13 19  1  0  0  0
 14 15  1  0  0  0
 14 16  1  0  0  0
 15 20  1  0  0  0
 16 21  1  0  0  0
 17 19  1  0  0  0
 17 22  1  0  0  0
 19 25  1  0  0  0
  1  3  2  0  0  0
  2  5  2  0  0  0
  4  6  2  0  0  0
  7 23  2  0  0  0
  8 24  2  0  0  0
M  END
> <rmsd>
0.320253491

$$$$
ZINC84064702


 26 28  0  0  0  0  0  0  0  0999 V2000
   -7.4884    1.2529   -1.5596 C   0  0  0  0  0
   -7.0809    0.3252   -0.6010 C   0  0  0  0  0
   -6.5560    2.1155   -2.1360 C   0  0  0  0  0
    6.4801   -3.2304    2.0510 C   0  0  0  0  0
   -5.7410    0.2602   -0.2187 C   0  0  0  0  0
   -5.2161    2.0505   -1.7538 C   0  0  0  0  0
    5.2176   -3.8132    1.9428 C   0  0  0  0  0
    6.6920   -1.9334    1.5833 C   0  0  0  0  0
   -4.8085    1.1229   -0.7951 C   0  0  0  0  0
    4.3786   -1.8023    0.8991 C   0  0  0  0  0
    4.1668   -3.0992    1.3668 C   0  0  0  0  0
    5.6412   -1.2194    1.0073 C   0  0  0  0  0
   -1.2940    0.3268    0.4595 C   0  0  0  0  0
   -1.3227    1.5971   -0.0768 C   0  0  0  0  0
   -3.4230    1.0549   -0.4004 C   0  0  0  0  0
    3.2595   -1.0417    0.2847 C   0  0  0  0  0
   -0.2215   -0.4057    1.0463 C   0  0  0  0  0
   -0.1802    2.5300   -0.1655 C   0  0  0  0  0
   -2.5427    2.0161   -0.5708 N   0  0  0  0  0
    2.1636   -0.8270    1.0985 N   0  0  0  0  0
    1.0849   -0.1446    0.5868 N   0  0  0  0  0
    3.3543   -0.6671   -0.8814 O   0  0  0  0  0
   -0.4201   -1.2732    1.9374 O   0  0  0  0  0
    2.9408   -3.6878    1.2720 O   0  0  0  0  0
    5.8701    0.0469    0.5576 O   0  0  0  0  0
   -2.8525   -0.3802    0.3478 S   0  0  0  0  0
  1  2  1  0  0  0
  3  6  1  0  0  0
  4  7  1  0  0  0
  5  9  1  0  0  0
  8 12  1  0  0  0
  9 15  1  0  0  0
 10 11  1  0  0  0
 10 16  1  0  0  0
 11 24  1  0  0  0
 12 25  1  0  0  0
 13 17  1  0  0  0
 13 26  1  0  0  0
 14 19  1  0  0  0
 15 26  1  0  0  0
 16 20  1  0  0  0
 17 21  1  0  0  0
 18 14  1  0  0  0
 20 21  1  0  0  0
  1  3  2  0  0  0
  2  5  2  0  0  0
  4  8  2  0  0  0
  6  9  2  0  0  0
  7 11  2  0  0  0
 10 12  2  0  0  0
 13 14  2  0  0  0
 15 19  2  0  0  0
 16 22  2  0  0  0
 17 23  2  0  0  0
M  END
> <rmsd>
0.446220726

$$$$
ZINC92120092


 27 30  0  0  0  0  0  0  0  0999 V2000
    1.9738    3.2799    0.6162 C   0  0  0  0  0
    1.3808    3.7643   -0.5457 C   0  0  0  0  0
    6.5210   -3.0816    2.0735 C   0  0  0  0  0
    1.7965    1.9458    0.9869 C   0  0  0  0  0
    0.5995    2.9185   -1.3294 C   0  0  0  0  0
    5.3039   -3.7516    1.9498 C   0  0  0  0  0
    6.6466   -1.7722    1.6093 C   0  0  0  0  0
    4.3381   -1.8030    0.8976 C   0  0  0  0  0
    1.0319    1.0736    0.1946 C   0  0  0  0  0
    0.4109    1.5844   -0.9537 C   0  0  0  0  0
    4.2124   -3.1124    1.3619 C   0  0  0  0  0
    5.5551   -1.1329    1.0214 C   0  0  0  0  0
    3.1758   -1.1222    0.2708 C   0  0  0  0  0
   -2.0965   -0.2085   -0.3856 C   0  0  0  0  0
   -1.2864   -1.2390   -2.5292 C   0  0  0  0  0
    0.2743   -1.1722   -0.5743 C   0  0  0  0  0
   -3.2742    0.4055   -1.1360 C   0  0  0  0  0
   -2.4683   -0.6217   -3.2690 C   0  0  0  0  0
    0.8355   -0.3665    0.5972 C   0  0  0  0  0
   -0.8616   -0.4214   -1.2892 C   0  0  0  0  0
   -4.8603    0.0300   -3.0205 C   0  0  0  0  0
    2.0531   -0.9842    1.0711 N   0  0  0  0  0
   -3.6257   -0.4625   -2.3169 N   0  0  0  0  0
    3.2583   -0.7459   -0.8954 O   0  0  0  0  0
   -0.3935    0.8488   -1.7834 O   0  0  0  0  0
    3.0321   -3.7855    1.2520 O   0  0  0  0  0
    5.6997    0.1470    0.5754 O   0  0  0  0  0
  1  2  1  0  0  0
  3  6  1  0  0  0
  4  9  1  0  0  0
  5 10  1  0  0  0
  7 12  1  0  0  0
  8 11  1  0  0  0
  8 13  1  0  0  0
 10 25  1  0  0  0
 11 26  1  0  0  0
 12 27  1  0  0  0
 13 22  1  0  0  0
 14 17  1  0  0  0
 14 20  1  0  0  0
 15 18  1  0  0  0
 15 20  1  0  0  0
 16 19  1  0  0  0
 16 20  1  0  0  0
 17 23  1  0  0  0
 18 23  1  0  0  0
 19  9  1  0  0  0
 19 22  1  0  0  0
 20 25  1  0  0  0
 21 23  1  0  0  0
  1  4  2  0  0  0
  2  5  2  0  0  0
  3  7  2  0  0  0
  6 11  2  0  0  0
  8 12  2  0  0  0
  9 10  2  0  0  0
 13 24  2  0  0  0
M  CHG  1  23   1
M  END
> <rmsd>
0.420398057

$$$$
ZINC73339551


 27 28  0  0  0  0  0  0  0  0999 V2000
    0.8451    2.3970   -0.7228 C   0  0  0  0  0
   -0.0499    2.8803    0.2317 C   0  0  0  0  0
    2.1667    2.1283   -0.3666 C   0  0  0  0  0
    2.4230   -2.6818   -2.1424 C   0  0  0  0  0
    0.3767    3.0951    1.5422 C   0  0  0  0  0
    2.5934    2.3430    0.9439 C   0  0  0  0  0
    2.5071   -3.3633   -0.9333 C   0  0  0  0  0
    3.0047   -1.4268   -2.2213 C   0  0  0  0  0
    1.6984    2.8264    1.8983 C   0  0  0  0  0
    3.1611   -2.7772    0.1446 C   0  0  0  0  0
    3.7101   -1.5181   -0.0367 C   0  0  0  0  0
    4.4213   -0.8298    1.0659 C   0  0  0  0  0
    2.7944    0.8208    4.2184 C   0  0  0  0  0
    4.7935    7.7980    6.7115 C   0  0  0  0  0
    4.0276   -0.0144    4.5260 C   0  0  0  0  0
    4.2081    6.4036    6.5543 C   0  0  0  0  0
    3.7518    6.1464    5.1184 C   0  0  0  0  0
    3.1949    4.7304    4.9566 C   0  0  0  0  0
    2.7019    4.4874    3.5249 C   0  0  0  0  0
    4.9006   -0.2748    3.3070 C   0  0  0  0  0
    2.1627    3.0597    3.3225 C   0  0  0  0  0
    3.6485   -0.8252   -1.1960 N   0  0  0  0  0
    4.1303   -1.0103    2.3014 N   0  0  0  0  0
    3.1380    2.0651    3.7107 N   0  0  0  0  0
    1.6477    0.4192    4.3969 O   0  0  0  0  0
    3.2484   -3.4358    1.3287 O   0  0  0  0  0
    5.3876   -0.0103    0.5921 O   0  0  0  0  0
  1  2  1  0  0  0
  3  6  1  0  0  0
  4  7  1  0  0  0
  5  9  1  0  0  0
  8 22  1  0  0  0
 10 11  1  0  0  0
 10 26  1  0  0  0
 11 12  1  0  0  0
 12 27  1  0  0  0
 13 24  1  0  0  0
 14 16  1  0  0  0
 15 13  1  0  0  0
 15 20  1  0  0  0
 16 17  1  0  0  0
 17 18  1  0  0  0
 18 19  1  0  0  0
 19 21  1  0  0  0
 20 23  1  0  0  0
 21  9  1  0  0  0
 21 24  1  0  0  0
  1  3  2  0  0  0
  2  5  2  0  0  0
  4  8  2  0  0  0
  6  9  2  0  0  0
  7 10  2  0  0  0
 11 22  2  0  0  0
 12 23  2  0  0  0
 13 25  2  0  0  0
M  END
> <rmsd>
0.453064233

$$$$
ZINC81453724


 27 29  0  0  0  0  0  0  0  0999 V2000
    2.0874   -2.3304   -1.9630 C   0  0  0  0  0
    0.0906   -0.6368    1.5244 C   0  0  0  0  0
    0.5459    0.9338    3.3028 C   0  0  0  0  0
    2.2572   -3.1148   -0.8276 C   0  0  0  0  0
    0.0581    0.4125    0.6060 C   0  0  0  0  0
    0.5135    1.9832    2.3844 C   0  0  0  0  0
    2.7558   -1.1180   -2.0197 C   0  0  0  0  0
    0.3345   -0.3761    2.8729 C   0  0  0  0  0
    3.0787   -2.6691    0.2020 C   0  0  0  0  0
    0.2695    1.7225    1.0360 C   0  0  0  0  0
    3.7029   -1.4416    0.0483 C   0  0  0  0  0
    4.5920   -0.9006    1.1028 C   0  0  0  0  0
    3.6167   -0.5736    5.1402 C   0  0  0  0  0
   -0.7653   -2.4467    5.8374 C   0  0  0  0  0
   -1.0152   -1.7965    4.4748 C   0  0  0  0  0
    0.7469   -2.4970    6.0135 C   0  0  0  0  0
    0.3708   -1.5142    3.8696 C   0  0  0  0  0
    1.2653   -1.3807    5.1120 C   0  0  0  0  0
    5.0100   -1.0088    4.7135 C   0  0  0  0  0
    5.3745   -0.5704    3.3026 C   0  0  0  0  0
    3.5621   -0.6518   -1.0398 N   0  0  0  0  0
    4.4343   -1.1624    2.3478 N   0  0  0  0  0
    2.6636   -1.5286    4.8151 N   0  0  0  0  0
    3.3882    0.4909    5.7083 O   0  0  0  0  0
    3.2506   -3.4288    1.3140 O   0  0  0  0  0
    5.5592   -0.1156    0.5755 O   0  0  0  0  0
    0.2409    2.7300    0.1537 F   0  0  0  0  0
  1  4  1  0  0  0
  2  8  1  0  0  0
  3  6  1  0  0  0
  5 10  1  0  0  0
  7 21  1  0  0  0
  9 11  1  0  0  0
  9 25  1  0  0  0
 10 27  1  0  0  0
 11 12  1  0  0  0
 12 26  1  0  0  0
 13 23  1  0  0  0
 14 15  1  0  0  0
 14 16  1  0  0  0
 15 17  1  0  0  0
 16 18  1  0  0  0
 17  8  1  0  0  0
 17 18  1  0  0  0
 18 23  1  0  0  0
 19 13  1  0  0  0
 19 20  1  0  0  0
 20 22  1  0  0  0
  1  7  2  0  0  0
  2  5  2  0  0  0
  3  8  2  0  0  0
  4  9  2  0  0  0
  6 10  2  0  0  0
 11 21  2  0  0  0
 12 22  2  0  0  0
 13 24  2  0  0  0
M  END
> <rmsd>
0.268170774

$$$$
ZINC92122098


 27 29  0  0  0  0  0  0  0  0999 V2000
    6.4442   -2.9845    2.2585 C   0  0  0  0  0
   -2.7604    0.4511    2.0765 C   0  0  0  0  0
   -2.4805   -0.2433   -0.2205 C   0  0  0  0  0
    5.2448   -3.6770    2.0936 C   0  0  0  0  0
    6.5799   -1.6933    1.7483 C   0  0  0  0  0
   -3.8367   -0.4259    2.2105 C   0  0  0  0  0
   -3.5567   -1.1205   -0.0865 C   0  0  0  0  0
    4.3166   -1.7873    0.9083 C   0  0  0  0  0
   -2.0823    0.5425    0.8609 C   0  0  0  0  0
   -4.2348   -1.2117    1.1290 C   0  0  0  0  0
    4.1809   -3.0786    1.4185 C   0  0  0  0  0
    5.5161   -1.0948    1.0732 C   0  0  0  0  0
    3.1839   -1.1500    0.1887 C   0  0  0  0  0
    1.6952    2.5215   -0.2674 C   0  0  0  0  0
    1.5731    1.8668    1.1015 C   0  0  0  0  0
    0.3900    3.1715   -0.6873 C   0  0  0  0  0
   -0.9080    1.4987    0.7147 C   0  0  0  0  0
    0.4327    0.8389    1.1478 C   0  0  0  0  0
   -2.0083    2.8367   -1.1542 C   0  0  0  0  0
   -5.6382   -2.8422    0.1151 C   0  0  0  0  0
    0.8194   -0.4157    0.3499 C   0  0  0  0  0
    1.9949   -0.9861    0.9078 N   0  0  0  0  0
   -0.7439    2.1636   -0.6643 N   0  0  0  0  0
    3.3285   -0.8203   -0.9856 O   0  0  0  0  0
    3.0174   -3.7731    1.2697 O   0  0  0  0  0
    5.6699    0.1679    0.5835 O   0  0  0  0  0
   -5.2842   -2.0686    1.2605 O   0  0  0  0  0
  1  4  1  0  0  0
  2  9  1  0  0  0
  3  7  1  0  0  0
  5 12  1  0  0  0
  6 10  1  0  0  0
  8 11  1  0  0  0
  8 13  1  0  0  0
 10 27  1  0  0  0
 11 25  1  0  0  0
 12 26  1  0  0  0
 13 22  1  0  0  0
 14 15  1  0  0  0
 14 16  1  0  0  0
 15 18  1  0  0  0
 16 23  1  0  0  0
 17  9  1  0  0  0
 17 18  1  0  0  0
 17 23  1  0  0  0
 18 21  1  0  0  0
 19 23  1  0  0  0
 20 27  1  0  0  0
 21 22  1  0  0  0
  1  5  2  0  0  0
  2  6  2  0  0  0
  3  9  2  0  0  0
  4 11  2  0  0  0
  7 10  2  0  0  0
  8 12  2  0  0  0
 13 24  2  0  0  0
M  CHG  1  23   1
M  END
> <rmsd>
0.40278101

$$$$
ZINC35643942


 27 31  0  0  0  0  0  0  0  0999 V2000
    0.3202    3.5420   -0.5415 C   0  0  0  0  0
    8.3025   -3.3334   -5.0239 C   0  0  0  0  0
    0.4885    2.8688   -1.7514 C   0  0  0  0  0
    0.5914    2.8914    0.6622 C   0  0  0  0  0
    7.8273   -4.5155   -4.4559 C   0  0  0  0  0
    8.3419   -2.1625   -4.2670 C   0  0  0  0  0
    0.9279    1.5449   -1.7578 C   0  0  0  0  0
    1.0308    1.5676    0.6559 C   0  0  0  0  0
    7.3916   -4.5266   -3.1309 C   0  0  0  0  0
    7.9062   -2.1736   -2.9420 C   0  0  0  0  0
    1.1990    0.8943   -0.5541 C   0  0  0  0  0
    7.4310   -3.3556   -2.3739 C   0  0  0  0  0
    2.2757   -1.3239    1.6014 C   0  0  0  0  0
    6.9500   -2.0985    1.0453 C   0  0  0  0  0
    1.6753   -0.5413   -0.5610 C   0  0  0  0  0
    6.9582   -3.3676   -0.9368 C   0  0  0  0  0
    3.5936   -1.8977   -0.4839 C   0  0  0  0  0
    5.0973   -1.9142   -0.6710 C   0  0  0  0  0
    3.4168   -2.1541    1.0127 C   0  0  0  0  0
    5.6238   -1.4333    0.6797 C   0  0  0  0  0
    1.2296   -1.1901    0.6409 O   0  0  0  0  0
    7.6646   -2.3933   -0.1540 O   0  0  0  0  0
    3.0889   -0.6013   -0.7972 O   0  0  0  0  0
    5.5267   -3.2544   -0.9040 O   0  0  0  0  0
    4.6401   -1.7803    1.6632 O   0  0  0  0  0
    3.1760   -3.5492    1.1850 O   0  0  0  0  0
    5.7685   -0.0155    0.6060 O   0  0  0  0  0
  1  3  1  0  0  0
  2  5  1  0  0  0
  4  8  1  0  0  0
  6 10  1  0  0  0
  7 11  1  0  0  0
  9 12  1  0  0  0
 13 19  1  0  0  0
 13 21  1  0  0  0
 14 20  1  0  0  0
 14 22  1  0  0  0
 15 11  1  0  0  0
 15 21  1  0  0  0
 15 23  1  0  0  0
 16 12  1  0  0  0
 16 22  1  0  0  0
 16 24  1  0  0  0
 17 18  1  0  0  0
 17 19  1  0  0  0
 17 23  1  0  0  0
 18 20  1  0  0  0
 18 24  1  0  0  0
 19 25  1  0  0  0
 19 26  1  0  0  0
 20 25  1  0  0  0
 20 27  1  0  0  0
  1  4  2  0  0  0
  2  6  2  0  0  0
  3  7  2  0  0  0
  5  9  2  0  0  0
  8 11  2  0  0  0
 10 12  2  0  0  0
M  END
> <rmsd>
0.420049697

$$$$
ZINC35643942


 27 31  0  0  0  0  0  0  0  0999 V2000
    8.3628   -7.0276   -2.6003 C   0  0  0  0  0
    0.5590    3.6139   -0.5078 C   0  0  0  0  0
    7.7530   -5.9499   -3.2423 C   0  0  0  0  0
    8.4115   -7.0727   -1.2070 C   0  0  0  0  0
   -0.3046    2.6147   -0.9565 C   0  0  0  0  0
    1.8266    3.2784   -0.0323 C   0  0  0  0  0
    7.1922   -4.9171   -2.4911 C   0  0  0  0  0
    7.8506   -6.0399   -0.4557 C   0  0  0  0  0
    0.0994    1.2799   -0.9295 C   0  0  0  0  0
    2.2307    1.9436   -0.0053 C   0  0  0  0  0
    7.2409   -4.9621   -1.0978 C   0  0  0  0  0
    1.3671    0.9443   -0.4539 C   0  0  0  0  0
    7.1888   -1.8771    0.8677 C   0  0  0  0  0
    2.5575   -1.2674    1.6982 C   0  0  0  0  0
    6.6344   -3.8446   -0.2850 C   0  0  0  0  0
    1.8049   -0.5026   -0.4244 C   0  0  0  0  0
    5.1801   -1.9814   -0.7241 C   0  0  0  0  0
    3.6811   -1.9176   -0.4779 C   0  0  0  0  0
    5.7499   -1.4425    0.5870 C   0  0  0  0  0
    3.5727   -2.1921    1.0268 C   0  0  0  0  0
    7.6367   -2.8583   -0.0653 O   0  0  0  0  0
    1.4350   -1.0754    0.8396 O   0  0  0  0  0
    5.5023   -3.3471   -0.9943 O   0  0  0  0  0
    3.1953   -0.6071   -0.7597 O   0  0  0  0  0
    4.8711   -1.9607    1.6023 O   0  0  0  0  0
    5.6763   -0.0153    0.5770 O   0  0  0  0  0
    3.2026   -3.5595    1.1914 O   0  0  0  0  0
  1  3  1  0  0  0
  2  5  1  0  0  0
  4  8  1  0  0  0
  6 10  1  0  0  0
  7 11  1  0  0  0
  9 12  1  0  0  0
 13 19  1  0  0  0
 13 21  1  0  0  0
 14 20  1  0  0  0
 14 22  1  0  0  0
 15 11  1  0  0  0
 15 21  1  0  0  0
 15 23  1  0  0  0
 16 12  1  0  0  0
 16 22  1  0  0  0
 16 24  1  0  0  0
 17 18  1  0  0  0
 17 19  1  0  0  0
 17 23  1  0  0  0
 18 20  1  0  0  0
 18 24  1  0  0  0
 19 25  1  0  0  0
 19 26  1  0  0  0
 20 25  1  0  0  0
 20 27  1  0  0  0
  1  4  2  0  0  0
  2  6  2  0  0  0
  3  7  2  0  0  0
  5  9  2  0  0  0
  8 11  2  0  0  0
 10 12  2  0  0  0
M  END
> <rmsd>
0.410961092

$$$$
ZINC35643950


 27 31  0  0  0  0  0  0  0  0999 V2000
    0.4668    3.5768   -0.5026 C   0  0  0  0  0
    7.6517   -7.7400   -1.5211 C   0  0  0  0  0
    0.5375    2.8527   -1.6925 C   0  0  0  0  0
    0.8181    2.9715    0.7041 C   0  0  0  0  0
    7.7037   -6.8244   -2.5720 C   0  0  0  0  0
    7.3529   -7.3038   -0.2302 C   0  0  0  0  0
    0.9593    1.5233   -1.6760 C   0  0  0  0  0
    1.2400    1.6421    0.7207 C   0  0  0  0  0
    7.4569   -5.4726   -2.3322 C   0  0  0  0  0
    7.1060   -5.9521    0.0095 C   0  0  0  0  0
    1.3106    0.9179   -0.4694 C   0  0  0  0  0
    7.1581   -5.0364   -1.0415 C   0  0  0  0  0
    2.5259   -1.3063    1.6649 C   0  0  0  0  0
    7.1410   -1.8941    0.8353 C   0  0  0  0  0
    1.7678   -0.5230   -0.4507 C   0  0  0  0  0
    6.8912   -3.5745   -0.7814 C   0  0  0  0  0
    3.6551   -1.9186   -0.5206 C   0  0  0  0  0
    5.1536   -1.9677   -0.7648 C   0  0  0  0  0
    3.5529   -2.2071    0.9825 C   0  0  0  0  0
    5.7152   -1.4347    0.5541 C   0  0  0  0  0
    1.4026   -1.1122    0.8074 O   0  0  0  0  0
    7.3036   -3.2807    0.5543 O   0  0  0  0  0
    3.1602   -0.6079   -0.7851 O   0  0  0  0  0
    5.4977   -3.3391   -0.9680 O   0  0  0  0  0
    4.8410   -1.9528    1.5721 O   0  0  0  0  0
    3.1799   -3.5668    1.1952 O   0  0  0  0  0
    5.7145   -0.0079    0.5875 O   0  0  0  0  0
  1  3  1  0  0  0
  2  5  1  0  0  0
  4  8  1  0  0  0
  6 10  1  0  0  0
  7 11  1  0  0  0
  9 12  1  0  0  0
 13 19  1  0  0  0
 13 21  1  0  0  0
 14 20  1  0  0  0
 14 22  1  0  0  0
 15 11  1  0  0  0
 15 21  1  0  0  0
 15 23  1  0  0  0
 16 12  1  0  0  0
 16 22  1  0  0  0
 16 24  1  0  0  0
 17 18  1  0  0  0
 17 19  1  0  0  0
 17 23  1  0  0  0
 18 20  1  0  0  0
 18 24  1  0  0  0
 19 25  1  0  0  0
 19 26  1  0  0  0
 20 25  1  0  0  0
 20 27  1  0  0  0
  1  4  2  0  0  0
  2  6  2  0  0  0
  3  7  2  0  0  0
  5  9  2  0  0  0
  8 11  2  0  0  0
 10 12  2  0  0  0
M  END
> <rmsd>
0.401368201

$$$$
ZINC92120584


 27 29  0  0  0  0  0  0  0  0999 V2000
    6.3237   -2.9223    2.4434 C   0  0  0  0  0
    0.3287    3.2966   -0.7318 C   0  0  0  0  0
    5.1245   -3.6050    2.2402 C   0  0  0  0  0
    6.5100   -1.6581    1.8841 C   0  0  0  0  0
    0.8243    3.9033    0.4222 C   0  0  0  0  0
    1.3365    1.7300    1.3448 C   0  0  0  0  0
    4.2979   -1.7595    0.9181 C   0  0  0  0  0
    0.8409    1.1232    0.1908 C   0  0  0  0  0
    0.3370    1.9066   -0.8476 C   0  0  0  0  0
    4.1116   -3.0237    1.4775 C   0  0  0  0  0
    5.4972   -1.0767    1.1214 C   0  0  0  0  0
    1.3282    3.1200    1.4606 C   0  0  0  0  0
    3.2195   -1.1404    0.1052 C   0  0  0  0  0
    0.7750    1.0790   -3.1158 C   0  0  0  0  0
   -1.5621    1.5429   -2.3960 C   0  0  0  0  0
    0.2730   -0.0393   -4.0192 C   0  0  0  0  0
   -2.0596    0.4265   -3.3054 C   0  0  0  0  0
   -0.4202   -1.0249    0.6232 C   0  0  0  0  0
   -1.6316   -0.7174   -5.4797 C   0  0  0  0  0
    0.8617   -0.3676    0.0939 C   0  0  0  0  0
   -0.1653    1.3149   -2.0124 N   0  0  0  0  0
    2.0187   -0.9397    0.7595 N   0  0  0  0  0
   -1.1257    0.2838   -4.4796 N   0  0  0  0  0
    3.4372   -0.8673   -1.0723 O   0  0  0  0  0
    2.9473   -3.7081    1.2925 O   0  0  0  0  0
    5.7000    0.1597    0.5848 O   0  0  0  0  0
    1.8044    3.7026    2.5687 F   0  0  0  0  0
  1  3  1  0  0  0
  2  9  1  0  0  0
  4 11  1  0  0  0
  5 12  1  0  0  0
  6  8  1  0  0  0
  7 10  1  0  0  0
  7 13  1  0  0  0
  9 21  1  0  0  0
 10 25  1  0  0  0
 11 26  1  0  0  0
 12 27  1  0  0  0
 13 22  1  0  0  0
 14 16  1  0  0  0
 14 21  1  0  0  0
 15 17  1  0  0  0
 15 21  1  0  0  0
 16 23  1  0  0  0
 17 23  1  0  0  0
 18 20  1  0  0  0
 19 23  1  0  0  0
 20  8  1  0  0  0
 20 22  1  0  0  0
  1  4  2  0  0  0
  2  5  2  0  0  0
  3 10  2  0  0  0
  6 12  2  0  0  0
  7 11  2  0  0  0
  8  9  2  0  0  0
 13 24  2  0  0  0
M  CHG  1  23   1
M  END
> <rmsd>
0.281612813

$$$$
ZINC92120587


 27 29  0  0  0  0  0  0  0  0999 V2000
    6.5269   -3.0901    2.0511 C   0  0  0  0  0
    1.7792    3.3166    0.6854 C   0  0  0  0  0
    5.3078   -3.7572    1.9323 C   0  0  0  0  0
    6.6518   -1.7788    1.5924 C   0  0  0  0  0
    1.4206    3.7035   -0.6057 C   0  0  0  0  0
    0.6885    1.4500   -1.0777 C   0  0  0  0  0
    4.3385   -1.8018    0.8960 C   0  0  0  0  0
    1.0472    1.0631    0.2136 C   0  0  0  0  0
    1.5925    1.9964    1.0951 C   0  0  0  0  0
    4.2136   -3.1132    1.3547 C   0  0  0  0  0
    5.5577   -1.1346    1.0147 C   0  0  0  0  0
    0.8752    2.7702   -1.4874 C   0  0  0  0  0
    3.1734   -1.1160    0.2801 C   0  0  0  0  0
    0.9435    1.7455    3.4483 C   0  0  0  0  0
    3.3528    1.7774    2.8243 C   0  0  0  0  0
    1.2574    0.8066    4.6053 C   0  0  0  0  0
    3.6622    0.8422    3.9864 C   0  0  0  0  0
    0.2213   -1.2260   -0.4805 C   0  0  0  0  0
    2.9883    0.2629    6.3166 C   0  0  0  0  0
    0.8365   -0.3576    0.6255 C   0  0  0  0  0
    1.9592    1.6258    2.3941 N   0  0  0  0  0
    2.0618   -0.9827    1.0906 N   0  0  0  0  0
    2.6609    1.0672    5.0901 N   0  0  0  0  0
    3.2489   -0.7342   -0.8848 O   0  0  0  0  0
    3.0313   -3.7837    1.2496 O   0  0  0  0  0
    5.7016    0.1471    0.5739 O   0  0  0  0  0
    0.5305    3.1418   -2.7272 F   0  0  0  0  0
  1  3  1  0  0  0
  2  9  1  0  0  0
  4 11  1  0  0  0
  5 12  1  0  0  0
  6  8  1  0  0  0
  7 10  1  0  0  0
  7 13  1  0  0  0
  9 21  1  0  0  0
 10 25  1  0  0  0
 11 26  1  0  0  0
 12 27  1  0  0  0
 13 22  1  0  0  0
 14 16  1  0  0  0
 14 21  1  0  0  0
 15 17  1  0  0  0
 15 21  1  0  0  0
 16 23  1  0  0  0
 17 23  1  0  0  0
 18 20  1  0  0  0
 19 23  1  0  0  0
 20  8  1  0  0  0
 20 22  1  0  0  0
  1  4  2  0  0  0
  2  5  2  0  0  0
  3 10  2  0  0  0
  6 12  2  0  0  0
  7 11  2  0  0  0
  8  9  2  0  0  0
 13 24  2  0  0  0
M  CHG  1  23   1
M  END
> <rmsd>
0.43398717

$$$$
ZINC39963244


 23 25  0  0  0  0  0  0  0  0999 V2000
    3.9265   -0.6579    2.8708 C   0  0  0  0  0
    1.6955   -4.4569    2.3288 C   0  0  0  0  0
    0.4363   -4.5449    2.9222 C   0  0  0  0  0
    0.0974   -2.1814    2.5537 C   0  0  0  0  0
    1.3567   -2.0932    1.9603 C   0  0  0  0  0
    2.1557   -3.2310    1.8479 C   0  0  0  0  0
   -0.3628   -3.4072    3.0347 C   0  0  0  0  0
    3.3548   -0.6531    1.5567 C   0  0  0  0  0
    1.4201   -0.5856    0.0332 C   0  0  0  0  0
    0.3831   -0.0024   -0.5673 C   0  0  0  0  0
    4.1532   -0.4879    0.4691 C   0  0  0  0  0
    1.8352   -0.7683    1.4496 C   0  0  0  0  0
    2.3499   -0.9874   -1.0496 C   0  0  0  0  0
    0.3171    2.8995    0.0846 C   0  0  0  0  0
   -0.8099    0.6266    0.0552 C   0  0  0  0  0
   -0.9157    2.1031   -0.3200 C   0  0  0  0  0
    4.3891   -0.6618    3.9347 N   0  0  0  0  0
    0.5227    0.0067   -1.9337 N   0  0  0  0  0
    1.6245   -0.5182   -2.2657 N   0  0  0  0  0
    5.5120   -0.3258    0.5264 N   0  0  0  0  0
    3.6551   -0.4399   -0.8303 O   0  0  0  0  0
    3.3881   -3.1625    1.2707 O   0  0  0  0  0
   -2.0703   -3.5275    3.8367 Br  0  0  0  0  0
  2  6  1  0  0  0
  3  7  1  0  0  0
  4  5  1  0  0  0
  6 22  1  0  0  0
  7 23  1  0  0  0
  8  1  1  0  0  0
 10 18  1  0  0  0
 11 20  1  0  0  0
 11 21  1  0  0  0
 12  5  1  0  0  0
 12  8  1  0  0  0
 12  9  1  0  0  0
 13  9  1  0  0  0
 13 19  1  0  0  0
 13 21  1  0  0  0
 14 16  1  0  0  0
 15 10  1  0  0  0
 15 16  1  0  0  0
  2  3  2  0  0  0
  4  7  2  0  0  0
  5  6  2  0  0  0
  8 11  2  0  0  0
  9 10  2  0  0  0
 18 19  2  0  0  0
  1 17  3  0  0  0
M  END
> <rmsd>
0.520830214

$$$$
ZINC04623367


 28 30  0  0  0  0  0  0  0  0999 V2000
   -1.3675    0.0019    4.4213 C   0  0  0  0  0
    2.4073    4.4642   -4.7535 C   0  0  0  0  0
   -0.0943    0.5581    4.2985 C   0  0  0  0  0
   -2.1337   -0.2447    3.2821 C   0  0  0  0  0
    3.1472    4.3840   -3.5738 C   0  0  0  0  0
    1.9164    3.3022   -5.3491 C   0  0  0  0  0
    0.4128    0.8677    3.0364 C   0  0  0  0  0
   -1.6267    0.0648    2.0200 C   0  0  0  0  0
    3.3963    3.1421   -2.9897 C   0  0  0  0  0
    2.1655    2.0603   -4.7650 C   0  0  0  0  0
   -0.3534    0.6211    1.8973 C   0  0  0  0  0
    2.9054    1.9802   -3.5854 C   0  0  0  0  0
    3.1357   -0.9377    0.1394 C   0  0  0  0  0
    1.3409    0.4051    0.0296 C   0  0  0  0  0
    2.7719    0.3013   -1.6962 C   0  0  0  0  0
    3.9407   -1.9004    0.8648 C   0  0  0  0  0
    0.2455    3.3597    0.3330 C   0  0  0  0  0
    5.5223    0.1527   -3.2628 C   0  0  0  0  0
   -0.4577    2.0978   -0.0357 C   0  0  0  0  0
    4.1289   -0.1206   -3.7173 C   0  0  0  0  0
    2.0356   -0.4816    0.7601 N   0  0  0  0  0
    3.5658   -0.5928   -1.0850 N   0  0  0  0  0
    1.6469    0.8430   -1.2023 N   0  0  0  0  0
    5.1943   -1.5575    1.1145 N   0  0  0  0  0
    3.4423   -3.1388    1.2901 N   0  0  0  0  0
    0.1596    0.9346    0.6212 N   0  0  0  0  0
    3.1599    0.7139   -2.9896 N   0  0  0  0  0
    5.5053   -0.2900    0.6117 O   0  0  0  0  0
  1  3  1  0  0  0
  2  5  1  0  0  0
  4  8  1  0  0  0
  6 10  1  0  0  0
  7 11  1  0  0  0
  9 12  1  0  0  0
 11 26  1  0  0  0
 12 27  1  0  0  0
 13 16  1  0  0  0
 13 22  1  0  0  0
 14 21  1  0  0  0
 14 26  1  0  0  0
 15 23  1  0  0  0
 15 27  1  0  0  0
 16 25  1  0  0  0
 17 19  1  0  0  0
 18 20  1  0  0  0
 19 26  1  0  0  0
 20 27  1  0  0  0
 24 28  1  0  0  0
  1  4  2  0  0  0
  2  6  2  0  0  0
  3  7  2  0  0  0
  5  9  2  0  0  0
  8 11  2  0  0  0
 10 12  2  0  0  0
 13 21  2  0  0  0
 14 23  2  0  0  0
 15 22  2  0  0  0
 16 24  2  0  0  0
M  END
> <rmsd>
0.447330505

$$$$
ZINC04623367


 28 30  0  0  0  0  0  0  0  0999 V2000
    6.5554   -0.5766   -5.1228 C   0  0  0  0  0
   -1.3638   -0.0024    4.4204 C   0  0  0  0  0
    6.7043    0.0626   -3.8919 C   0  0  0  0  0
    5.2811   -0.7866   -5.6499 C   0  0  0  0  0
   -0.0907    0.5540    4.2982 C   0  0  0  0  0
   -2.1293   -0.2497    3.2809 C   0  0  0  0  0
    5.5791    0.4916   -3.1882 C   0  0  0  0  0
    4.1558   -0.3575   -4.9462 C   0  0  0  0  0
    0.4171    0.8633    3.0364 C   0  0  0  0  0
   -1.6216    0.0595    2.0191 C   0  0  0  0  0
    4.3048    0.2816   -3.7153 C   0  0  0  0  0
   -0.3484    0.6161    1.8968 C   0  0  0  0  0
    3.1366   -0.9369    0.1375 C   0  0  0  0  0
    2.7748    0.3007   -1.6994 C   0  0  0  0  0
    1.3421    0.4061    0.0249 C   0  0  0  0  0
    3.9406   -1.8992    0.8644 C   0  0  0  0  0
    2.5872    2.8971   -3.9386 C   0  0  0  0  0
    0.2377    3.3594    0.3404 C   0  0  0  0  0
    2.1812    1.4700   -3.7934 C   0  0  0  0  0
   -0.4596    2.0958   -0.0334 C   0  0  0  0  0
    3.5680   -0.5928   -1.0869 N   0  0  0  0  0
    2.0362   -0.4801    0.7569 N   0  0  0  0  0
    1.6493    0.8429   -1.2070 N   0  0  0  0  0
    5.1941   -1.5563    1.1151 N   0  0  0  0  0
    3.4415   -3.1372    1.2902 N   0  0  0  0  0
    3.1670    0.7154   -3.0032 N   0  0  0  0  0
    0.1696    0.9319    0.6102 N   0  0  0  0  0
    5.5059   -0.2894    0.6116 O   0  0  0  0  0
  1  3  1  0  0  0
  2  5  1  0  0  0
  4  8  1  0  0  0
  6 10  1  0  0  0
  7 11  1  0  0  0
  9 12  1  0  0  0
 11 26  1  0  0  0
 12 27  1  0  0  0
 13 16  1  0  0  0
 13 22  1  0  0  0
 14 21  1  0  0  0
 14 26  1  0  0  0
 15 23  1  0  0  0
 15 27  1  0  0  0
 16 25  1  0  0  0
 17 19  1  0  0  0
 18 20  1  0  0  0
 19 26  1  0  0  0
 20 27  1  0  0  0
 24 28  1  0  0  0
  1  4  2  0  0  0
  2  6  2  0  0  0
  3  7  2  0  0  0
  5  9  2  0  0  0
  8 11  2  0  0  0
 10 12  2  0  0  0
 13 21  2  0  0  0
 14 23  2  0  0  0
 15 22  2  0  0  0
 16 24  2  0  0  0
M  END
> <rmsd>
0.448733479

$$$$
ZINC67677119


 28 30  0  0  0  0  0  0  0  0999 V2000
    5.9915    4.3619    3.4222 C   0  0  0  0  0
    6.5704   -3.1648    2.0271 C   0  0  0  0  0
    6.6305    5.1242    2.4506 C   0  0  0  0  0
   -1.1524    0.3069    3.7649 C   0  0  0  0  0
   -0.5012   -0.3547    2.7298 C   0  0  0  0  0
    5.3408   -3.8138    1.9166 C   0  0  0  0  0
    6.7102   -1.8533    1.5730 C   0  0  0  0  0
    4.6518    4.0251    3.2637 C   0  0  0  0  0
    5.8914    5.5217    1.3481 C   0  0  0  0  0
   -1.0660    1.6890    3.8071 C   0  0  0  0  0
    4.3904   -1.8398    0.8980 C   0  0  0  0  0
    0.2067    0.3758    1.7819 C   0  0  0  0  0
    4.2507   -3.1513    1.3521 C   0  0  0  0  0
    5.6202   -1.1908    1.0084 C   0  0  0  0  0
    4.0013    4.4720    2.1249 C   0  0  0  0  0
    0.2321    1.7550    1.9127 C   0  0  0  0  0
    3.2513   -1.1470    0.3066 C   0  0  0  0  0
    0.2917    2.9737   -0.2486 C   0  0  0  0  0
    0.9081   -0.3422    0.6654 C   0  0  0  0  0
    2.5470    4.1257    1.9196 C   0  0  0  0  0
    2.3481    2.8142    1.1636 C   0  0  0  0  0
    4.5886    5.2142    1.1596 N   0  0  0  0  0
   -0.3881    2.4329    2.9045 N   0  0  0  0  0
    2.1220   -0.9854    1.1143 N   0  0  0  0  0
    0.9522    2.5039    0.9486 N   0  0  0  0  0
    3.3010   -0.7482   -0.8683 O   0  0  0  0  0
    3.0583   -3.8046    1.2535 O   0  0  0  0  0
    5.7789    0.0904    0.5715 O   0  0  0  0  0
  1  3  1  0  0  0
  2  6  1  0  0  0
  4  5  1  0  0  0
  7 14  1  0  0  0
  8 15  1  0  0  0
  9 22  1  0  0  0
 10 23  1  0  0  0
 11 13  1  0  0  0
 11 17  1  0  0  0
 12 16  1  0  0  0
 13 27  1  0  0  0
 14 28  1  0  0  0
 16 25  1  0  0  0
 17 24  1  0  0  0
 18 25  1  0  0  0
 19 12  1  0  0  0
 19 24  1  0  0  0
 20 15  1  0  0  0
 20 21  1  0  0  0
 21 25  1  0  0  0
  1  8  2  0  0  0
  2  7  2  0  0  0
  3  9  2  0  0  0
  4 10  2  0  0  0
  5 12  2  0  0  0
  6 13  2  0  0  0
 11 14  2  0  0  0
 15 22  2  0  0  0
 16 23  2  0  0  0
 17 26  2  0  0  0
M  END
> <rmsd>
0.459197223

$$$$
ZINC67677119


 28 30  0  0  0  0  0  0  0  0999 V2000
    5.9999    5.5317    1.3904 C   0  0  0  0  0
    6.5706   -3.1650    2.0266 C   0  0  0  0  0
    6.6304    5.0717    2.5411 C   0  0  0  0  0
   -1.1522    0.3067    3.7645 C   0  0  0  0  0
   -0.5010   -0.3549    2.7294 C   0  0  0  0  0
    5.3409   -3.8140    1.9162 C   0  0  0  0  0
    6.7103   -1.8535    1.5725 C   0  0  0  0  0
    4.6604    5.2305    1.1706 C   0  0  0  0  0
    5.8831    4.3202    3.4338 C   0  0  0  0  0
   -1.0658    1.6889    3.8067 C   0  0  0  0  0
    4.3905   -1.8400    0.8976 C   0  0  0  0  0
    0.2069    0.3757    1.7815 C   0  0  0  0  0
    4.2508   -3.1515    1.3517 C   0  0  0  0  0
    5.6204   -1.1910    1.0080 C   0  0  0  0  0
    4.0014    4.4718    2.1245 C   0  0  0  0  0
    0.2323    1.7548    1.9123 C   0  0  0  0  0
    3.2515   -1.1472    0.3061 C   0  0  0  0  0
    0.2919    2.9735   -0.2491 C   0  0  0  0  0
    0.9082   -0.3424    0.6650 C   0  0  0  0  0
    2.5471    4.1256    1.9191 C   0  0  0  0  0
    2.3482    2.8141    1.1632 C   0  0  0  0  0
    4.5802    4.0074    3.2545 N   0  0  0  0  0
   -0.3879    2.4327    2.9040 N   0  0  0  0  0
    2.1222   -0.9855    1.1139 N   0  0  0  0  0
    0.9524    2.5038    0.9482 N   0  0  0  0  0
    3.3012   -0.7483   -0.8687 O   0  0  0  0  0
    3.0584   -3.8047    1.2530 O   0  0  0  0  0
    5.7791    0.0903    0.5711 O   0  0  0  0  0
  1  3  1  0  0  0
  2  6  1  0  0  0
  4  5  1  0  0  0
  7 14  1  0  0  0
  8 15  1  0  0  0
  9 22  1  0  0  0
 10 23  1  0  0  0
 11 13  1  0  0  0
 11 17  1  0  0  0
 12 16  1  0  0  0
 13 27  1  0  0  0
 14 28  1  0  0  0
 16 25  1  0  0  0
 17 24  1  0  0  0
 18 25  1  0  0  0
 19 12  1  0  0  0
 19 24  1  0  0  0
 20 15  1  0  0  0
 20 21  1  0  0  0
 21 25  1  0  0  0
  1  8  2  0  0  0
  2  7  2  0  0  0
  3  9  2  0  0  0
  4 10  2  0  0  0
  5 12  2  0  0  0
  6 13  2  0  0  0
 11 14  2  0  0  0
 15 22  2  0  0  0
 16 23  2  0  0  0
 17 26  2  0  0  0
M  END
> <rmsd>
0.459197223

$$$$
ZINC00998212


 28 29  0  0  0  0  0  0  0  0999 V2000
    0.8040    0.8831   -1.1280 C   0  0  0  0  0
    1.2843    1.0568    1.2334 C   0  0  0  0  0
   -0.3335    1.6715   -0.9547 C   0  0  0  0  0
    0.1467    1.8453    1.4067 C   0  0  0  0  0
    6.5204   -3.5150    1.3588 C   0  0  0  0  0
    1.6129    0.5757   -0.0339 C   0  0  0  0  0
    6.7065   -2.1702    1.0384 C   0  0  0  0  0
    5.2313   -4.0183    1.5335 C   0  0  0  0  0
    4.3145   -1.8322    1.0675 C   0  0  0  0  0
   -0.6621    2.1526    0.3127 C   0  0  0  0  0
    5.6036   -1.3288    0.8927 C   0  0  0  0  0
    4.1283   -3.1769    1.3879 C   0  0  0  0  0
    2.8133   -0.2580   -0.2167 C   0  0  0  0  0
    9.1515   -2.7758    1.0725 C   0  0  0  0  0
    8.4062   -0.5089    1.8737 C   0  0  0  0  0
    8.4053   -1.0491   -0.5532 C   0  0  0  0  0
    6.4277   -6.1897    1.9802 C   0  0  0  0  0
    4.2108   -6.1977    0.7879 C   0  0  0  0  0
    4.3249   -5.7439    3.2297 C   0  0  0  0  0
    8.1356   -1.6342    0.8516 C   0  0  0  0  0
    5.0528   -5.4612    1.8745 C   0  0  0  0  0
    3.2080   -0.9890    0.9192 N   0  0  0  0  0
   -1.8216    2.9535    0.4890 N   0  0  0  0  0
   -2.5362    3.2163   -0.5083 O   0  0  0  0  0
    3.4218   -0.2654   -1.2847 O   0  0  0  0  0
   -2.0998    3.3760    1.6372 O   0  0  0  0  0
    5.7911   -0.0141    0.5785 O   0  0  0  0  0
    2.8691   -3.6747    1.5588 O   0  0  0  0  0
  1  6  1  0  0  0
  2  4  1  0  0  0
  3 10  1  0  0  0
  5  7  1  0  0  0
  6 13  1  0  0  0
  8 12  1  0  0  0
  9 11  1  0  0  0
  9 22  1  0  0  0
 10 23  1  0  0  0
 11 27  1  0  0  0
 12 28  1  0  0  0
 13 22  1  0  0  0
 14 20  1  0  0  0
 15 20  1  0  0  0
 16 20  1  0  0  0
 17 21  1  0  0  0
 18 21  1  0  0  0
 19 21  1  0  0  0
 20  7  1  0  0  0
 21  8  1  0  0  0
 23 24  1  0  0  0
  1  3  2  0  0  0
  2  6  2  0  0  0
  4 10  2  0  0  0
  5  8  2  0  0  0
  7 11  2  0  0  0
  9 12  2  0  0  0
 13 25  2  0  0  0
 23 26  2  0  0  0
M  CHG  2  23   1  24  -1
M  END
> <rmsd>
0.501122594

$$$$
ZINC20355752


 29 32  0  0  0  0  0  0  0  0999 V2000
    5.4524    4.1749    3.5028 C   0  0  0  0  0
    5.4864    4.0351    2.1173 C   0  0  0  0  0
    0.7130   -3.1477   -0.9902 C   0  0  0  0  0
    2.5883   -4.6056   -1.4310 C   0  0  0  0  0
    5.2110    3.0628    4.3054 C   0  0  0  0  0
    5.2770    2.7827    1.5343 C   0  0  0  0  0
    0.0204   -3.7150   -2.0598 C   0  0  0  0  0
    1.8958   -5.1730   -2.5007 C   0  0  0  0  0
    1.9969   -3.5930   -0.6758 C   0  0  0  0  0
    3.1132   -1.7170    0.6798 C   0  0  0  0  0
    4.9937    1.8174    3.7103 C   0  0  0  0  0
    5.0160    1.6565    2.3289 C   0  0  0  0  0
    0.6118   -4.7276   -2.8151 C   0  0  0  0  0
    2.7124   -3.0068    0.4305 C   0  0  0  0  0
    3.7675   -1.7861    1.9243 C   0  0  0  0  0
    4.4619   -0.5584    3.9992 C   0  0  0  0  0
    2.8906   -0.5843   -0.1711 C   0  0  0  0  0
    1.0526    2.5267    0.5611 C   0  0  0  0  0
    1.8646    1.5839   -0.3012 C   0  0  0  0  0
    3.7836   -3.0221    2.4305 N   0  0  0  0  0
    3.1343   -3.7414    1.4994 N   0  0  0  0  0
    4.7900    0.6900    4.5044 N   0  0  0  0  0
    4.8433    0.3758    1.7652 N   0  0  0  0  0
    4.3628   -0.6650    2.6000 N   0  0  0  0  0
    4.2026   -1.4628    4.7991 O   0  0  0  0  0
    3.3032   -0.4733   -1.3455 O   0  0  0  0  0
    5.5947    0.0370    0.6383 O   0  0  0  0  0
    2.1549    0.3993    0.4485 O   0  0  0  0  0
   -0.0532   -5.2725   -3.8421 F   0  0  0  0  0
  1  2  1  0  0  0
  3  9  1  0  0  0
  4  8  1  0  0  0
  5 11  1  0  0  0
  6 12  1  0  0  0
  7 13  1  0  0  0
  9 14  1  0  0  0
 10 15  1  0  0  0
 10 17  1  0  0  0
 11 22  1  0  0  0
 12 23  1  0  0  0
 13 29  1  0  0  0
 14 21  1  0  0  0
 15 24  1  0  0  0
 16 22  1  0  0  0
 16 24  1  0  0  0
 17 28  1  0  0  0
 18 19  1  0  0  0
 19 28  1  0  0  0
 21 20  1  0  0  0
 23 24  1  0  0  0
 23 27  1  0  0  0
  1  5  2  0  0  0
  2  6  2  0  0  0
  3  7  2  0  0  0
  4  9  2  0  0  0
  8 13  2  0  0  0
 10 14  2  0  0  0
 11 12  2  0  0  0
 15 20  2  0  0  0
 16 25  2  0  0  0
 17 26  2  0  0  0
M  END
> <rmsd>
0.482634604

$$$$
ZINC67654501


 29 31  0  0  0  0  0  0  0  0999 V2000
    0.5317    1.9809    6.0370 C   0  0  0  0  0
    6.3345   -2.9302    2.4256 C   0  0  0  0  0
    1.1768    3.2817   -0.8316 C   0  0  0  0  0
    1.8905    2.2897    6.1006 C   0  0  0  0  0
    1.1844    1.8939   -0.9170 C   0  0  0  0  0
   -0.0361    1.5781    4.8282 C   0  0  0  0  0
    5.1344   -3.6126    2.2264 C   0  0  0  0  0
    6.5169   -1.6636    1.8706 C   0  0  0  0  0
    2.1136    1.7932    3.7468 C   0  0  0  0  0
    0.8336    3.8547    0.3824 C   0  0  0  0  0
    4.2993   -1.7619    0.9170 C   0  0  0  0  0
    2.6814    2.1959    4.9556 C   0  0  0  0  0
    0.8535    1.1324    0.1982 C   0  0  0  0  0
    0.7548    1.4843    3.6831 C   0  0  0  0  0
    4.1169   -3.0286    1.4721 C   0  0  0  0  0
    5.4993   -1.0795    1.1163 C   0  0  0  0  0
    0.5250    1.8016    1.3661 C   0  0  0  0  0
    3.2360   -1.1512    0.1271 C   0  0  0  0  0
    0.8586   -0.3668    0.1173 C   0  0  0  0  0
    4.1339    2.5270    5.0238 C   0  0  0  0  0
    0.5063    3.1479    1.4874 N   0  0  0  0  0
    2.0134   -0.9397    0.7709 N   0  0  0  0  0
    3.4277   -0.8616   -1.0649 O   0  0  0  0  0
    2.9524   -3.7134    1.2895 O   0  0  0  0  0
    5.6989    0.1590    0.5834 O   0  0  0  0  0
    0.1928    1.0860    2.4870 O   0  0  0  0  0
    4.5514    2.9062    6.2679 F   0  0  0  0  0
    4.9487    1.4872    4.6766 F   0  0  0  0  0
    4.4778    3.5544    4.1935 F   0  0  0  0  0
  1  4  1  0  0  0
  2  7  1  0  0  0
  3  5  1  0  0  0
  6 14  1  0  0  0
  8 16  1  0  0  0
  9 12  1  0  0  0
 10 21  1  0  0  0
 11 15  1  0  0  0
 11 18  1  0  0  0
 13 17  1  0  0  0
 14 26  1  0  0  0
 15 24  1  0  0  0
 16 25  1  0  0  0
 17 26  1  0  0  0
 18 22  1  0  0  0
 19 13  1  0  0  0
 19 22  1  0  0  0
 20 12  1  0  0  0
 20 27  1  0  0  0
 20 28  1  0  0  0
 20 29  1  0  0  0
  1  6  2  0  0  0
  2  8  2  0  0  0
  3 10  2  0  0  0
  4 12  2  0  0  0
  5 13  2  0  0  0
  7 15  2  0  0  0
  9 14  2  0  0  0
 11 16  2  0  0  0
 17 21  2  0  0  0
 18 23  2  0  0  0
M  END
> <rmsd>
0.283305645

$$$$
ZINC20355753


 29 32  0  0  0  0  0  0  0  0999 V2000
    5.4564    4.1733    3.5046 C   0  0  0  0  0
    5.4902    4.0338    2.1189 C   0  0  0  0  0
    0.7130   -3.1478   -0.9899 C   0  0  0  0  0
    2.5881   -4.6064   -1.4300 C   0  0  0  0  0
    5.2141    3.0613    4.3068 C   0  0  0  0  0
    5.2794    2.7818    1.5357 C   0  0  0  0  0
    0.0205   -3.7154   -2.0592 C   0  0  0  0  0
    1.8954   -5.1742   -2.4994 C   0  0  0  0  0
    1.9970   -3.5933   -0.6753 C   0  0  0  0  0
    3.1135   -1.7174    0.6802 C   0  0  0  0  0
    4.9954    1.8162    3.7114 C   0  0  0  0  0
    5.0175    1.6556    2.3299 C   0  0  0  0  0
    0.6115   -4.7287   -2.8140 C   0  0  0  0  0
    2.7125   -3.0072    0.4309 C   0  0  0  0  0
    3.7678   -1.7866    1.9249 C   0  0  0  0  0
    4.4621   -0.5592    3.9997 C   0  0  0  0  0
    2.8912   -0.5847   -0.1706 C   0  0  0  0  0
    1.0537    2.5266    0.5614 C   0  0  0  0  0
    1.8657    1.5838   -0.3008 C   0  0  0  0  0
    3.7835   -3.0225    2.4310 N   0  0  0  0  0
    3.1342   -3.7419    1.4999 N   0  0  0  0  0
    4.7909    0.6887    4.5053 N   0  0  0  0  0
    4.8438    0.3750    1.7658 N   0  0  0  0  0
    4.3632   -0.6657    2.6005 N   0  0  0  0  0
    4.2018   -1.4637    4.7994 O   0  0  0  0  0
    3.3039   -0.4738   -1.3450 O   0  0  0  0  0
    5.5940    0.0364    0.6383 O   0  0  0  0  0
    2.1556    0.3991    0.4490 O   0  0  0  0  0
   -0.2429   -5.4291   -4.1334 Cl  0  0  0  0  0
  1  2  1  0  0  0
  3  9  1  0  0  0
  4  8  1  0  0  0
  5 11  1  0  0  0
  6 12  1  0  0  0
  7 13  1  0  0  0
  9 14  1  0  0  0
 10 15  1  0  0  0
 10 17  1  0  0  0
 11 22  1  0  0  0
 12 23  1  0  0  0
 13 29  1  0  0  0
 14 21  1  0  0  0
 15 24  1  0  0  0
 16 22  1  0  0  0
 16 24  1  0  0  0
 17 28  1  0  0  0
 18 19  1  0  0  0
 19 28  1  0  0  0
 21 20  1  0  0  0
 23 24  1  0  0  0
 23 27  1  0  0  0
  1  5  2  0  0  0
  2  6  2  0  0  0
  3  7  2  0  0  0
  4  9  2  0  0  0
  8 13  2  0  0  0
 10 14  2  0  0  0
 11 12  2  0  0  0
 15 20  2  0  0  0
 16 25  2  0  0  0
 17 26  2  0  0  0
M  END
> <rmsd>
0.483076125

$$$$
ZINC64219649


 31 33  0  0  0  0  0  0  0  0999 V2000
   -0.2114    3.4123   -0.9564 C   0  0  0  0  0
    5.2848    4.6618    1.0472 C   0  0  0  0  0
   -0.8928    2.6792    0.0292 C   0  0  0  0  0
    5.4286    4.1160    2.3336 C   0  0  0  0  0
    1.1041    3.8388   -0.7529 C   0  0  0  0  0
    4.0902    4.5178    0.3357 C   0  0  0  0  0
   -0.2715    2.3566    1.2371 C   0  0  0  0  0
    4.3814    3.4141    2.9331 C   0  0  0  0  0
    1.7212    3.5189    0.4456 C   0  0  0  0  0
    3.0507    3.8211    0.9302 C   0  0  0  0  0
    1.0342    2.7764    1.4325 C   0  0  0  0  0
    3.2011    3.2689    2.2223 C   0  0  0  0  0
    5.3400   -3.2149   -0.2233 C   0  0  0  0  0
    3.5689   -0.5935    2.1364 C   0  0  0  0  0
    3.3125   -1.0216   -0.3860 C   0  0  0  0  0
    1.9212    2.5660    2.6514 C   0  0  0  0  0
    1.8037   -2.1774   -2.5126 C   0  0  0  0  0
   -0.0723   -2.3328   -0.8496 C   0  0  0  0  0
    0.8479   -0.0855   -1.4903 C   0  0  0  0  0
    2.1376    1.1020    2.9702 C   0  0  0  0  0
    4.6770   -2.6267    1.0397 C   0  0  0  0  0
    4.2101   -1.1546    0.8555 C   0  0  0  0  0
    1.1783   -1.5599   -1.2626 C   0  0  0  0  0
    5.3662   -0.2674    0.6297 N   0  0  0  0  0
    3.5397   -3.4717    1.5391 N   0  0  0  0  0
    5.9529   -2.3887   -0.9567 O   0  0  0  0  0
    5.1782   -4.4585   -0.3816 O   0  0  0  0  0
    3.7933   -1.0147    3.2652 O   0  0  0  0  0
    3.6147   -0.3967   -1.3966 O   0  0  0  0  0
    2.7541    0.4662    1.8459 O   0  0  0  0  0
    2.1187   -1.6554   -0.1883 O   0  0  0  0  0
  1  3  1  0  0  0
  2  6  1  0  0  0
  4  8  1  0  0  0
  5  9  1  0  0  0
  7 11  1  0  0  0
  9 10  1  0  0  0
 10 12  1  0  0  0
 13 26  1  0  0  0
 14 30  1  0  0  0
 15 31  1  0  0  0
 16 11  1  0  0  0
 16 12  1  0  0  0
 16 20  1  0  0  0
 17 23  1  0  0  0
 18 23  1  0  0  0
 19 23  1  0  0  0
 20 30  1  0  0  0
 21 13  1  0  0  0
 21 22  1  0  0  0
 21 25  1  0  0  0
 22 14  1  0  0  0
 22 15  1  0  0  0
 22 24  1  0  0  0
 23 31  1  0  0  0
  1  5  2  0  0  0
  2  4  2  0  0  0
  3  7  2  0  0  0
  6 10  2  0  0  0
  8 12  2  0  0  0
  9 11  2  0  0  0
 13 27  2  0  0  0
 14 28  2  0  0  0
 15 29  2  0  0  0
M  CHG  2  25   1  26  -1
M  END
> <rmsd>
0.525753796

$$$$
ZINC49601554


 31 32  0  0  0  0  0  0  0  0999 V2000
    6.4935   -3.0587    2.1620 C   0  0  0  0  0
    6.6275   -1.7603    1.6701 C   0  0  0  0  0
    5.2760   -3.7285    2.0407 C   0  0  0  0  0
    4.3260   -1.8013    0.9360 C   0  0  0  0  0
    5.5437   -1.1316    1.0572 C   0  0  0  0  0
    4.1923   -3.0997    1.4277 C   0  0  0  0  0
    5.1609   -5.0848    2.5590 C   0  0  0  0  0
    0.2693    0.0215    0.3138 C   0  0  0  0  0
    3.1533   -2.8860   -4.2461 C   0  0  0  0  0
    1.6757   -3.2491   -4.0654 C   0  0  0  0  0
    3.5646   -1.7191   -3.3456 C   0  0  0  0  0
    1.3695   -3.4565   -2.5743 C   0  0  0  0  0
    3.1532   -2.0164   -1.9016 C   0  0  0  0  0
    6.3983   -5.9328    2.5571 C   0  0  0  0  0
    0.4667    2.9813    0.3170 C   0  0  0  0  0
   -0.1077   -3.7089   -2.2987 C   0  0  0  0  0
    2.7714    0.2230    0.9146 C   0  0  0  0  0
    3.1538   -1.1189    0.2704 C   0  0  0  0  0
    1.5342    0.8877    0.3092 C   0  0  0  0  0
   -0.0923   -0.4275    1.4370 O   0  0  0  0  0
    4.1236   -5.5871    2.9931 O   0  0  0  0  0
   -0.2687   -0.1271   -0.8207 O   0  0  0  0  0
    1.7540   -2.3012   -1.8141 O   0  0  0  0  0
    5.6924    0.1375    0.5840 O   0  0  0  0  0
    3.0008   -3.7536    1.3077 O   0  0  0  0  0
    3.4200   -2.5925   -5.6118 O   0  0  0  0  0
    0.8649   -2.2022   -4.5989 O   0  0  0  0  0
    2.9389   -0.5095   -3.7793 O   0  0  0  0  0
   -0.2824   -3.8971   -0.9057 O   0  0  0  0  0
    3.4898   -0.8943   -1.0909 O   0  0  0  0  0
    1.2106    2.0447    1.0803 O   0  0  0  0  0
  1  3  1  0  0  0
  2  5  1  0  0  0
  3  7  1  0  0  0
  4  6  1  0  0  0
  5 24  1  0  0  0
  6 25  1  0  0  0
  8 20  1  0  0  0
  9 10  1  0  0  0
  9 11  1  0  0  0
  9 26  1  0  0  0
 10 12  1  0  0  0
 10 27  1  0  0  0
 11 13  1  0  0  0
 11 28  1  0  0  0
 12 16  1  0  0  0
 12 23  1  0  0  0
 13 23  1  0  0  0
 13 30  1  0  0  0
 14  7  1  0  0  0
 15 31  1  0  0  0
 16 29  1  0  0  0
 17 18  1  0  0  0
 17 19  1  0  0  0
 18  4  1  0  0  0
 18 30  1  0  0  0
 19  8  1  0  0  0
 19 31  1  0  0  0
  1  2  2  0  0  0
  3  6  2  0  0  0
  4  5  2  0  0  0
  7 21  2  0  0  0
  8 22  2  0  0  0
M  CHG  1  20  -1
M  END
> <rmsd>
0.393725365

$$$$
ZINC49601554


 31 32  0  0  0  0  0  0  0  0999 V2000
    6.4867   -3.0651    2.1698 C   0  0  0  0  0
    5.2668   -3.7295    2.0442 C   0  0  0  0  0
    6.6279   -1.7671    1.6788 C   0  0  0  0  0
    4.3290   -1.7980    0.9365 C   0  0  0  0  0
    4.1879   -3.0959    1.4275 C   0  0  0  0  0
    5.5491   -1.1336    1.0622 C   0  0  0  0  0
    7.9104   -1.0923    1.8242 C   0  0  0  0  0
    0.2765    0.0331    0.3115 C   0  0  0  0  0
    3.1587   -2.8780   -4.2471 C   0  0  0  0  0
    1.6802   -3.2382   -4.0678 C   0  0  0  0  0
    3.5715   -1.7123   -3.3457 C   0  0  0  0  0
    1.3723   -3.4457   -2.5772 C   0  0  0  0  0
    3.1583   -2.0095   -1.9023 C   0  0  0  0  0
    8.7540   -1.4589    3.0092 C   0  0  0  0  0
    0.4798    2.9925    0.3163 C   0  0  0  0  0
   -0.1057   -3.6953   -2.3030 C   0  0  0  0  0
    2.7784    0.2294    0.9146 C   0  0  0  0  0
    3.1587   -1.1130    0.2702 C   0  0  0  0  0
    1.5431    0.8968    0.3085 C   0  0  0  0  0
   -0.0870   -0.4156    1.4343 O   0  0  0  0  0
    8.3501   -0.2412    1.0502 O   0  0  0  0  0
   -0.2609   -0.1138   -0.8235 O   0  0  0  0  0
    1.7583   -2.2915   -1.8160 O   0  0  0  0  0
    3.0041   -3.7609    1.3125 O   0  0  0  0  0
    5.6852    0.1363    0.5821 O   0  0  0  0  0
    3.4272   -2.5845   -5.6124 O   0  0  0  0  0
    0.8720   -2.1895   -4.6017 O   0  0  0  0  0
    2.9486   -0.5013   -3.7794 O   0  0  0  0  0
   -0.2820   -3.8838   -0.9102 O   0  0  0  0  0
    3.4963   -0.8884   -1.0907 O   0  0  0  0  0
    1.2212    2.0541    1.0798 O   0  0  0  0  0
  1  3  1  0  0  0
  2  5  1  0  0  0
  3  7  1  0  0  0
  4  6  1  0  0  0
  5 24  1  0  0  0
  6 25  1  0  0  0
  8 20  1  0  0  0
  9 10  1  0  0  0
  9 11  1  0  0  0
  9 26  1  0  0  0
 10 12  1  0  0  0
 10 27  1  0  0  0
 11 13  1  0  0  0
 11 28  1  0  0  0
 12 16  1  0  0  0
 12 23  1  0  0  0
 13 23  1  0  0  0
 13 30  1  0  0  0
 14  7  1  0  0  0
 15 31  1  0  0  0
 16 29  1  0  0  0
 17 18  1  0  0  0
 17 19  1  0  0  0
 18  4  1  0  0  0
 18 30  1  0  0  0
 19  8  1  0  0  0
 19 31  1  0  0  0
  1  2  2  0  0  0
  3  6  2  0  0  0
  4  5  2  0  0  0
  7 21  2  0  0  0
  8 22  2  0  0  0
M  CHG  1  20  -1
M  END
> <rmsd>
0.396925509

$$$$
ZINC49601554


 31 32  0  0  0  0  0  0  0  0999 V2000
    6.4555   -3.4143    1.6541 C   0  0  0  0  0
    6.7040   -2.0952    1.2748 C   0  0  0  0  0
    5.1494   -3.9041    1.6604 C   0  0  0  0  0
    4.3401   -1.7555    0.9083 C   0  0  0  0  0
    5.6463   -1.2658    0.9020 C   0  0  0  0  0
    4.0918   -3.0746    1.2875 C   0  0  0  0  0
    4.9147   -5.2857    2.0571 C   0  0  0  0  0
    1.5926    2.3140    2.2512 C   0  0  0  0  0
    2.3028   -2.0684   -4.1073 C   0  0  0  0  0
    0.8289   -2.2582   -3.7341 C   0  0  0  0  0
    3.0008   -1.0770   -3.1738 C   0  0  0  0  0
    0.7099   -2.5976   -2.2405 C   0  0  0  0  0
    2.7593   -1.4859   -1.7188 C   0  0  0  0  0
    6.0044   -6.2789    1.7805 C   0  0  0  0  0
   -0.0234    1.6052   -0.1332 C   0  0  0  0  0
   -0.7343   -2.6895   -1.7634 C   0  0  0  0  0
    3.1058    0.4395    1.3249 C   0  0  0  0  0
    3.1962   -0.8558    0.5027 C   0  0  0  0  0
    1.7152    1.0753    1.3564 C   0  0  0  0  0
    2.3992    3.2550    2.0106 O   0  0  0  0  0
    3.8879   -5.6986    2.5974 O   0  0  0  0  0
    0.6786    2.2436    3.1221 O   0  0  0  0  0
    1.3602   -1.5977   -1.4418 O   0  0  0  0  0
    5.9077    0.0204    0.5358 O   0  0  0  0  0
    2.8137   -3.5523    1.2925 O   0  0  0  0  0
    2.4132   -1.6540   -5.4632 O   0  0  0  0  0
    0.1099   -1.0612   -4.0312 O   0  0  0  0  0
    2.5007    0.2450   -3.3860 O   0  0  0  0  0
   -0.7355   -3.0153   -0.3848 O   0  0  0  0  0
    3.3651   -0.5185   -0.8662 O   0  0  0  0  0
    1.3821    1.5170    0.0405 O   0  0  0  0  0
  1  3  1  0  0  0
  2  5  1  0  0  0
  3  7  1  0  0  0
  4  6  1  0  0  0
  5 24  1  0  0  0
  6 25  1  0  0  0
  8 20  1  0  0  0
  9 10  1  0  0  0
  9 11  1  0  0  0
  9 26  1  0  0  0
 10 12  1  0  0  0
 10 27  1  0  0  0
 11 13  1  0  0  0
 11 28  1  0  0  0
 12 16  1  0  0  0
 12 23  1  0  0  0
 13 23  1  0  0  0
 13 30  1  0  0  0
 14  7  1  0  0  0
 15 31  1  0  0  0
 16 29  1  0  0  0
 17 18  1  0  0  0
 17 19  1  0  0  0
 18  4  1  0  0  0
 18 30  1  0  0  0
 19  8  1  0  0  0
 19 31  1  0  0  0
  1  2  2  0  0  0
  3  6  2  0  0  0
  4  5  2  0  0  0
  7 21  2  0  0  0
  8 22  2  0  0  0
M  CHG  1  20  -1
M  END
> <rmsd>
0.491742581

$$$$
ZINC49601554


 31 32  0  0  0  0  0  0  0  0999 V2000
    6.4502   -3.4215    1.6606 C   0  0  0  0  0
    5.1418   -3.9047    1.6643 C   0  0  0  0  0
    6.7061   -2.1039    1.2809 C   0  0  0  0  0
    4.3450   -1.7528    0.9084 C   0  0  0  0  0
    4.0892   -3.0703    1.2882 C   0  0  0  0  0
    5.6535   -1.2695    0.9048 C   0  0  0  0  0
    8.0802   -1.6206    1.2879 C   0  0  0  0  0
    1.6074    2.3235    2.2513 C   0  0  0  0  0
    2.3074   -2.0603   -4.1074 C   0  0  0  0  0
    0.8329   -2.2464   -3.7343 C   0  0  0  0  0
    3.0077   -1.0706   -3.1738 C   0  0  0  0  0
    0.7130   -2.5856   -2.2408 C   0  0  0  0  0
    2.7651   -1.4790   -1.7189 C   0  0  0  0  0
    9.0215   -2.2284    2.2852 C   0  0  0  0  0
   -0.0101    1.6188   -0.1333 C   0  0  0  0  0
   -0.7315   -2.6740   -1.7638 C   0  0  0  0  0
    3.1160    0.4452    1.3251 C   0  0  0  0  0
    3.2033   -0.8503    0.5028 C   0  0  0  0  0
    1.7271    1.0845    1.3565 C   0  0  0  0  0
    2.4164    3.2624    2.0109 O   0  0  0  0  0
    8.5237   -0.7483    0.5401 O   0  0  0  0  0
    0.6931    2.2552    3.1221 O   0  0  0  0  0
    1.3657   -1.5874   -1.4420 O   0  0  0  0  0
    2.8176   -3.5600    1.2965 O   0  0  0  0  0
    5.9020    0.0198    0.5339 O   0  0  0  0  0
    2.4189   -1.6460   -5.4633 O   0  0  0  0  0
    0.1170   -1.0476   -4.0314 O   0  0  0  0  0
    2.5110    0.2527   -3.3859 O   0  0  0  0  0
   -0.7337   -2.9999   -0.3853 O   0  0  0  0  0
    3.3731   -0.5132   -0.8661 O   0  0  0  0  0
    1.3951    1.5271    0.0406 O   0  0  0  0  0
  1  3  1  0  0  0
  2  5  1  0  0  0
  3  7  1  0  0  0
  4  6  1  0  0  0
  5 24  1  0  0  0
  6 25  1  0  0  0
  8 20  1  0  0  0
  9 10  1  0  0  0
  9 11  1  0  0  0
  9 26  1  0  0  0
 10 12  1  0  0  0
 10 27  1  0  0  0
 11 13  1  0  0  0
 11 28  1  0  0  0
 12 16  1  0  0  0
 12 23  1  0  0  0
 13 23  1  0  0  0
 13 30  1  0  0  0
 14  7  1  0  0  0
 15 31  1  0  0  0
 16 29  1  0  0  0
 17 18  1  0  0  0
 17 19  1  0  0  0
 18  4  1  0  0  0
 18 30  1  0  0  0
 19  8  1  0  0  0
 19 31  1  0  0  0
  1  2  2  0  0  0
  3  6  2  0  0  0
  4  5  2  0  0  0
  7 21  2  0  0  0
  8 22  2  0  0  0
M  CHG  1  20  -1
M  END
> <rmsd>
0.483880758

$$$$
ZINC39336693


 33 37  0  0  0  0  0  0  0  0999 V2000
    6.1762   -6.6661    1.8457 C   0  0  0  0  0
    4.9770   -7.0210    1.2281 C   0  0  0  0  0
    6.3518   -5.3722    2.3364 C   0  0  0  0  0
    0.5333    1.9919    0.8903 C   0  0  0  0  0
    0.1570    1.5849   -1.4613 C   0  0  0  0  0
    3.9532   -6.0821    1.1013 C   0  0  0  0  0
    5.3281   -4.4333    2.2096 C   0  0  0  0  0
    0.4839    3.3668    0.6602 C   0  0  0  0  0
    0.1076    2.9598   -1.6913 C   0  0  0  0  0
    0.3700    1.1010   -0.1705 C   0  0  0  0  0
    4.1288   -4.7882    1.5921 C   0  0  0  0  0
    0.2710    3.8507   -0.6306 C   0  0  0  0  0
    4.7233    3.8784    0.6957 C   0  0  0  0  0
    5.8149    3.4923   -0.1861 C   0  0  0  0  0
    4.0496    3.0198    1.4771 C   0  0  0  0  0
    6.2673    2.2353   -0.3156 C   0  0  0  0  0
    1.6353   -0.9564    0.6349 C   0  0  0  0  0
    2.8526   -0.9114    0.0777 C   0  0  0  0  0
    4.4770    1.6290    1.3996 C   0  0  0  0  0
    5.5903    1.2351    0.4995 C   0  0  0  0  0
    0.4243   -0.3673    0.0749 C   0  0  0  0  0
    3.9232   -1.6057    0.9046 C   0  0  0  0  0
    4.8375   -0.5829    1.5885 C   0  0  0  0  0
    3.2084   -2.4961    1.9463 C   0  0  0  0  0
    4.0430    0.5931    2.0094 N   0  0  0  0  0
    5.7867   -0.0238    0.5997 N   0  0  0  0  0
    3.2238   -0.3427   -1.1026 N   0  0  0  0  0
    3.1125   -3.8563    1.4656 N   0  0  0  0  0
    0.2228    5.2506   -0.8645 N   0  0  0  0  0
    0.3742    6.0343    0.1036 O   0  0  0  0  0
   -0.5606   -1.0661   -0.1791 O   0  0  0  0  0
    0.0307    5.6654   -2.0330 O   0  0  0  0  0
    1.5331   -1.7930    2.1371 S   0  0  0  0  0
  1  2  1  0  0  0
  3  7  1  0  0  0
  4 10  1  0  0  0
  5  9  1  0  0  0
  6 11  1  0  0  0
  8 12  1  0  0  0
 10 21  1  0  0  0
 11 28  1  0  0  0
 12 29  1  0  0  0
 13 14  1  0  0  0
 15 19  1  0  0  0
 16 20  1  0  0  0
 17 21  1  0  0  0
 17 33  1  0  0  0
 18 27  1  0  0  0
 19 20  1  0  0  0
 22 18  1  0  0  0
 22 23  1  0  0  0
 22 24  1  0  0  0
 23 25  1  0  0  0
 23 26  1  0  0  0
 24 28  1  0  0  0
 24 33  1  0  0  0
 29 30  1  0  0  0
  1  3  2  0  0  0
  2  6  2  0  0  0
  4  8  2  0  0  0
  5 10  2  0  0  0
  7 11  2  0  0  0
  9 12  2  0  0  0
 13 15  2  0  0  0
 14 16  2  0  0  0
 17 18  2  0  0  0
 19 25  2  0  0  0
 20 26  2  0  0  0
 21 31  2  0  0  0
 29 32  2  0  0  0
M  CHG  5  25   1  26   1  29   1  30  -1  33   1
M  END
> <rmsd>
0.41159448

$$$$
ZINC63537904


 32 36  0  0  0  0  0  0  0  0999 V2000
   -0.0556    2.2939    0.5514 C   0  0  0  0  0
    1.1940    2.3545   -0.1106 C   0  0  0  0  0
   -0.5567    1.0365    0.3072 C   0  0  0  0  0
    1.3676    1.1297   -0.7118 C   0  0  0  0  0
   -3.2934   -5.0104    0.2765 C   0  0  0  0  0
   -2.1807   -4.3525   -0.0964 C   0  0  0  0  0
   -2.6501   -5.2411    2.6308 C   0  0  0  0  0
   -0.3672   -4.1638    3.0122 C   0  0  0  0  0
   -1.4417   -4.5481    2.3136 C   0  0  0  0  0
   -3.5369   -5.4597    1.6432 C   0  0  0  0  0
   -1.1761   -4.0855    0.9412 C   0  0  0  0  0
    3.7132   -2.4299    1.6499 C   0  0  0  0  0
    3.6859    1.4604   -1.9096 C   0  0  0  0  0
    5.8986   -1.3019    1.1453 C   0  0  0  0  0
    2.4825    0.5365   -1.5696 C   0  0  0  0  0
    0.6298   -3.4427    2.1393 C   0  0  0  0  0
    4.5638   -1.8051    0.5894 C   0  0  0  0  0
    4.7784    1.5380   -0.8074 C   0  0  0  0  0
    3.9282   -0.5376    0.0389 C   0  0  0  0  0
    1.9455   -4.1357    2.0343 C   0  0  0  0  0
    5.9893    2.3013   -1.3548 C   0  0  0  0  0
    6.0194    0.0880    0.6772 N   0  0  0  0  0
    2.9859   -0.7550   -1.0493 N   0  0  0  0  0
    5.1233    0.1602   -0.4405 N   0  0  0  0  0
   -0.0558   -3.4836    0.8265 N   0  0  0  0  0
    2.8535   -3.4044    1.1802 N   0  0  0  0  0
    3.8268   -2.0585    2.8122 O   0  0  0  0  0
    0.3048    0.3205   -0.4619 O   0  0  0  0  0
    6.9285    2.4076   -0.4046 F   0  0  0  0  0
    6.5023    1.6480   -2.4065 F   0  0  0  0  0
    5.6168    3.5294   -1.7414 F   0  0  0  0  0
   -5.0160   -6.2910    1.9653 Cl  0  0  0  0  0
  1  2  1  0  0  0
  3 28  1  0  0  0
  4 28  1  0  0  0
  5 10  1  0  0  0
  6 11  1  0  0  0
  7  9  1  0  0  0
  9 11  1  0  0  0
 10 32  1  0  0  0
 12 26  1  0  0  0
 13 15  1  0  0  0
 13 18  1  0  0  0
 14 17  1  0  0  0
 14 22  1  0  0  0
 15  4  1  0  0  0
 15 23  1  0  0  0
 16  8  1  0  0  0
 16 20  1  0  0  0
 16 25  1  0  0  0
 17 12  1  0  0  0
 17 19  1  0  0  0
 18 21  1  0  0  0
 18 24  1  0  0  0
 19 23  1  0  0  0
 19 24  1  0  0  0
 20 26  1  0  0  0
 21 29  1  0  0  0
 21 30  1  0  0  0
 21 31  1  0  0  0
 22 24  1  0  0  0
  1  3  2  0  0  0
  2  4  2  0  0  0
  5  6  2  0  0  0
  7 10  2  0  0  0
  8  9  2  0  0  0
 11 25  2  0  0  0
 12 27  2  0  0  0
M  CHG  1  25   1
M  END
> <rmsd>
0.539145172

$$$$
ZINC63537904


 32 36  0  0  0  0  0  0  0  0999 V2000
   -0.5412    1.6756    0.2830 C   0  0  0  0  0
   -0.0244    0.8210   -0.7198 C   0  0  0  0  0
    0.5349    2.3698    0.7851 C   0  0  0  0  0
    1.3306    1.0542   -0.7593 C   0  0  0  0  0
   -2.8950   -2.8371    4.4233 C   0  0  0  0  0
   -2.1866   -3.9267    4.0761 C   0  0  0  0  0
   -1.7074   -1.3005    2.9270 C   0  0  0  0  0
    0.0931   -2.5701    1.6368 C   0  0  0  0  0
   -0.9112   -2.4097    2.5062 C   0  0  0  0  0
   -2.6610   -1.5152    3.8512 C   0  0  0  0  0
   -1.1310   -3.7521    3.0701 C   0  0  0  0  0
    3.7181   -2.4455    1.6496 C   0  0  0  0  0
    3.6544    1.4204   -1.9359 C   0  0  0  0  0
    5.8871   -1.2800    1.1594 C   0  0  0  0  0
    2.4651    0.4764   -1.6019 C   0  0  0  0  0
    0.5633   -4.0029    1.5949 C   0  0  0  0  0
    4.5677   -1.8118    0.5934 C   0  0  0  0  0
    4.7340    1.5257   -0.8234 C   0  0  0  0  0
    3.9142   -0.5599    0.0282 C   0  0  0  0  0
    1.9787   -4.1816    2.0275 C   0  0  0  0  0
    5.9361    2.3080   -1.3636 C   0  0  0  0  0
    5.9867    0.1088    0.6833 N   0  0  0  0  0
    2.9872   -0.8020   -1.0679 N   0  0  0  0  0
    5.1009    0.1570   -0.4438 N   0  0  0  0  0
   -0.3393   -4.6305    2.5881 N   0  0  0  0  0
    2.8816   -3.4389    1.1777 N   0  0  0  0  0
    3.8130   -2.0645    2.8104 O   0  0  0  0  0
    1.6796    1.9969    0.1549 O   0  0  0  0  0
    6.8633    2.4380   -0.4048 F   0  0  0  0  0
    6.4718    1.6575   -2.4057 F   0  0  0  0  0
    5.5447    3.5263   -1.7621 F   0  0  0  0  0
   -3.6557   -0.2140    4.3988 Cl  0  0  0  0  0
  1  2  1  0  0  0
  3 28  1  0  0  0
  4 28  1  0  0  0
  5 10  1  0  0  0
  6 11  1  0  0  0
  7  9  1  0  0  0
  9 11  1  0  0  0
 10 32  1  0  0  0
 12 26  1  0  0  0
 13 15  1  0  0  0
 13 18  1  0  0  0
 14 17  1  0  0  0
 14 22  1  0  0  0
 15  4  1  0  0  0
 15 23  1  0  0  0
 16  8  1  0  0  0
 16 20  1  0  0  0
 16 25  1  0  0  0
 17 12  1  0  0  0
 17 19  1  0  0  0
 18 21  1  0  0  0
 18 24  1  0  0  0
 19 23  1  0  0  0
 19 24  1  0  0  0
 20 26  1  0  0  0
 21 29  1  0  0  0
 21 30  1  0  0  0
 21 31  1  0  0  0
 22 24  1  0  0  0
  1  3  2  0  0  0
  2  4  2  0  0  0
  5  6  2  0  0  0
  7 10  2  0  0  0
  8  9  2  0  0  0
 11 25  2  0  0  0
 12 27  2  0  0  0
M  CHG  1  25   1
M  END
> <rmsd>
0.47998336

$$$$
ZINC63537904


 32 36  0  0  0  0  0  0  0  0999 V2000
   -0.0558    2.2937    0.5516 C   0  0  0  0  0
    1.1938    2.3543   -0.1104 C   0  0  0  0  0
   -0.5568    1.0363    0.3074 C   0  0  0  0  0
    1.3674    1.1294   -0.7116 C   0  0  0  0  0
   -3.0745   -4.0267    4.5023 C   0  0  0  0  0
   -2.2687   -4.8837    3.8496 C   0  0  0  0  0
   -1.9911   -1.9970    3.6554 C   0  0  0  0  0
   -0.0623   -2.6294    2.1069 C   0  0  0  0  0
   -1.0946   -2.8415    2.9312 C   0  0  0  0  0
   -2.9421   -2.5764    4.4101 C   0  0  0  0  0
   -1.2109   -4.3073    3.0095 C   0  0  0  0  0
    3.7130   -2.4301    1.6501 C   0  0  0  0  0
    3.6857    1.4601   -1.9094 C   0  0  0  0  0
    5.8984   -1.3021    1.1455 C   0  0  0  0  0
    2.4823    0.5363   -1.5694 C   0  0  0  0  0
    0.5292   -3.9281    1.6174 C   0  0  0  0  0
    4.5636   -1.8054    0.5896 C   0  0  0  0  0
    4.7782    1.5378   -0.8072 C   0  0  0  0  0
    3.9281   -0.5378    0.0391 C   0  0  0  0  0
    1.9453   -4.1360    2.0345 C   0  0  0  0  0
    5.9892    2.3011   -1.3546 C   0  0  0  0  0
    6.0192    0.0878    0.6774 N   0  0  0  0  0
    2.9857   -0.7553   -1.0491 N   0  0  0  0  0
    5.1231    0.1600   -0.4403 N   0  0  0  0  0
   -0.3373   -4.9148    2.3035 N   0  0  0  0  0
    2.8533   -3.4046    1.1803 N   0  0  0  0  0
    3.8266   -2.0587    2.8124 O   0  0  0  0  0
    0.3047    0.3202   -0.4617 O   0  0  0  0  0
    6.9283    2.4074   -0.4044 F   0  0  0  0  0
    6.5022    1.6477   -2.4063 F   0  0  0  0  0
    5.6167    3.5291   -1.7412 F   0  0  0  0  0
   -4.0554   -1.6082    5.3075 Cl  0  0  0  0  0
  1  2  1  0  0  0
  3 28  1  0  0  0
  4 28  1  0  0  0
  5 10  1  0  0  0
  6 11  1  0  0  0
  7  9  1  0  0  0
  9 11  1  0  0  0
 10 32  1  0  0  0
 12 26  1  0  0  0
 13 15  1  0  0  0
 13 18  1  0  0  0
 14 17  1  0  0  0
 14 22  1  0  0  0
 15  4  1  0  0  0
 15 23  1  0  0  0
 16  8  1  0  0  0
 16 20  1  0  0  0
 16 25  1  0  0  0
 17 12  1  0  0  0
 17 19  1  0  0  0
 18 21  1  0  0  0
 18 24  1  0  0  0
 19 23  1  0  0  0
 19 24  1  0  0  0
 20 26  1  0  0  0
 21 29  1  0  0  0
 21 30  1  0  0  0
 21 31  1  0  0  0
 22 24  1  0  0  0
  1  3  2  0  0  0
  2  4  2  0  0  0
  5  6  2  0  0  0
  7 10  2  0  0  0
  8  9  2  0  0  0
 11 25  2  0  0  0
 12 27  2  0  0  0
M  CHG  1  25   1
M  END
> <rmsd>
0.539145291

$$$$
ZINC72400629


 32 34  0  0  0  0  0  0  0  0999 V2000
    1.9615    3.7941    0.1832 C   0  0  0  0  0
    0.4011    0.3109    6.4438 C   0  0  0  0  0
    1.1614    3.7184    1.4876 C   0  0  0  0  0
    1.5176    2.7321   -0.8295 C   0  0  0  0  0
   -0.1329    1.2550    5.3652 C   0  0  0  0  0
    4.5311   -2.3785    0.7511 C   0  0  0  0  0
    1.8905    0.5292    6.7310 C   0  0  0  0  0
    1.1352    2.2912    2.0511 C   0  0  0  0  0
    1.5475    1.3104   -0.2494 C   0  0  0  0  0
    4.7187   -2.7738   -0.7201 C   0  0  0  0  0
    4.1712   -0.8990    0.9136 C   0  0  0  0  0
    0.7022    1.2239    1.0304 C   0  0  0  0  0
    2.6952    0.6235    5.4268 C   0  0  0  0  0
    3.6136   -2.1932   -1.6199 C   0  0  0  0  0
    0.8019    1.2966    4.1553 C   0  0  0  0  0
    3.0934   -0.4586   -0.0809 C   0  0  0  0  0
    4.1530    0.9997    5.6671 C   0  0  0  0  0
    3.8785   -2.4124   -3.1053 C   0  0  0  0  0
   -0.2289    4.1980    1.2363 N   0  0  0  0  0
    2.4196    2.7979   -2.0132 N   0  0  0  0  0
   -0.2513    2.6312    5.9346 N   0  0  0  0  0
    3.4467   -3.2111    1.3449 N   0  0  0  0  0
    4.8586    1.0268    4.3687 N   0  0  0  0  0
    2.1345    1.6160    4.5580 O   0  0  0  0  0
    3.4890   -0.7805   -1.4140 O   0  0  0  0  0
    2.0615    1.7256    7.4887 O   0  0  0  0  0
    5.9996   -2.2918   -1.1327 O   0  0  0  0  0
    5.3597   -0.1331    0.6899 O   0  0  0  0  0
   -0.6755    1.3910    0.7053 O   0  0  0  0  0
    2.8054   -1.8549   -3.8425 O   0  0  0  0  0
    0.3098    2.2438    3.2116 O   0  0  0  0  0
    2.8923    0.9455    0.0588 O   0  0  0  0  0
  1  3  1  0  0  0
  1  4  1  0  0  0
  2  5  1  0  0  0
  2  7  1  0  0  0
  3  8  1  0  0  0
  3 19  1  0  0  0
  4  9  1  0  0  0
  4 20  1  0  0  0
  5 15  1  0  0  0
  5 21  1  0  0  0
  6 10  1  0  0  0
  6 11  1  0  0  0
  6 22  1  0  0  0
  7 13  1  0  0  0
  7 26  1  0  0  0
  8 12  1  0  0  0
  8 31  1  0  0  0
  9 12  1  0  0  0
  9 32  1  0  0  0
 10 14  1  0  0  0
 10 27  1  0  0  0
 11 16  1  0  0  0
 11 28  1  0  0  0
 12 29  1  0  0  0
 13 17  1  0  0  0
 13 24  1  0  0  0
 14 18  1  0  0  0
 14 25  1  0  0  0
 15 24  1  0  0  0
 15 31  1  0  0  0
 16 25  1  0  0  0
 16 32  1  0  0  0
 17 23  1  0  0  0
 18 30  1  0  0  0
M  CHG  5  19   1  20   1  21   1  22   1  23   1
M  END
> <rmsd>
0.518137157

$$$$
ZINC72400631


 32 34  0  0  0  0  0  0  0  0999 V2000
    0.9927    2.3564    2.0433 C   0  0  0  0  0
    6.4214    4.5512   -1.2368 C   0  0  0  0  0
    0.9150    3.7292    1.3729 C   0  0  0  0  0
    0.7191    1.2164    1.0558 C   0  0  0  0  0
    5.4364    3.7552   -0.3788 C   0  0  0  0  0
    4.5320   -2.3810    0.7480 C   0  0  0  0  0
    6.4367    6.0423   -0.8836 C   0  0  0  0  0
    1.8566    3.8408    0.1672 C   0  0  0  0  0
    1.5573    1.3220   -0.2274 C   0  0  0  0  0
    4.7104   -2.7727   -0.7252 C   0  0  0  0  0
    4.1793   -0.9003    0.9167 C   0  0  0  0  0
    1.5647    2.7285   -0.8544 C   0  0  0  0  0
    5.0094    6.5958   -0.7665 C   0  0  0  0  0
    3.6034   -2.1847   -1.6177 C   0  0  0  0  0
    4.0798    4.4573   -0.3000 C   0  0  0  0  0
    3.0984   -0.4524   -0.0710 C   0  0  0  0  0
    4.9810    8.0335   -0.2606 C   0  0  0  0  0
    3.8599   -2.4007   -3.1051 C   0  0  0  0  0
    1.2573    4.7710    2.3798 N   0  0  0  0  0
   -0.7284    1.2123    0.6991 N   0  0  0  0  0
    5.9915    3.6155    1.0012 N   0  0  0  0  0
    3.4470   -3.2106    1.3449 N   0  0  0  0  0
    3.5782    8.4967   -0.2186 N   0  0  0  0  0
    4.2346    5.8057    0.1444 O   0  0  0  0  0
    3.4859   -0.7721   -1.4071 O   0  0  0  0  0
    7.1294    6.2354    0.3483 O   0  0  0  0  0
    5.9915   -2.2950   -1.1428 O   0  0  0  0  0
    5.3699   -0.1390    0.6893 O   0  0  0  0  0
    0.3018    2.9653   -1.4708 O   0  0  0  0  0
    2.7855   -1.8364   -3.8351 O   0  0  0  0  0
    3.2202    3.7257    0.5692 O   0  0  0  0  0
    2.9041    0.9521    0.0738 O   0  0  0  0  0
  1  3  1  0  0  0
  1  4  1  0  0  0
  2  5  1  0  0  0
  2  7  1  0  0  0
  3  8  1  0  0  0
  3 19  1  0  0  0
  4  9  1  0  0  0
  4 20  1  0  0  0
  5 15  1  0  0  0
  5 21  1  0  0  0
  6 10  1  0  0  0
  6 11  1  0  0  0
  6 22  1  0  0  0
  7 13  1  0  0  0
  7 26  1  0  0  0
  8 12  1  0  0  0
  8 31  1  0  0  0
  9 12  1  0  0  0
  9 32  1  0  0  0
 10 14  1  0  0  0
 10 27  1  0  0  0
 11 16  1  0  0  0
 11 28  1  0  0  0
 12 29  1  0  0  0
 13 17  1  0  0  0
 13 24  1  0  0  0
 14 18  1  0  0  0
 14 25  1  0  0  0
 15 24  1  0  0  0
 15 31  1  0  0  0
 16 25  1  0  0  0
 16 32  1  0  0  0
 17 23  1  0  0  0
 18 30  1  0  0  0
M  CHG  5  19   1  20   1  21   1  22   1  23   1
M  END
> <rmsd>
0.492278516

$$$$
ZINC72400628


 32 34  0  0  0  0  0  0  0  0999 V2000
    1.0218    2.3387    2.0485 C   0  0  0  0  0
    6.4036    5.7334    0.3717 C   0  0  0  0  0
    0.9878    3.7264    1.3986 C   0  0  0  0  0
    0.7183    1.2144    1.0471 C   0  0  0  0  0
    5.5262    4.5085    0.6354 C   0  0  0  0  0
    4.5324   -2.3808    0.7492 C   0  0  0  0  0
    5.7716    7.0309    0.8872 C   0  0  0  0  0
    1.9171    3.8244    0.1832 C   0  0  0  0  0
    1.5535    1.3197   -0.2363 C   0  0  0  0  0
    4.7143   -2.7740   -0.7232 C   0  0  0  0  0
    4.1771   -0.9006    0.9154 C   0  0  0  0  0
    1.5333    2.7374   -0.8334 C   0  0  0  0  0
    4.2964    7.1281    0.4728 C   0  0  0  0  0
    3.6083   -2.1888   -1.6186 C   0  0  0  0  0
    4.0739    4.7726    0.2347 C   0  0  0  0  0
    3.0975   -0.4555   -0.0750 C   0  0  0  0  0
    3.5919    8.3251    1.1011 C   0  0  0  0  0
    3.8681   -2.4061   -3.1052 C   0  0  0  0  0
    1.3759    4.7401    2.4166 N   0  0  0  0  0
   -0.7298    1.2496    0.6940 N   0  0  0  0  0
    5.5753    4.1757    2.0910 N   0  0  0  0  0
    3.4474   -3.2114    1.3449 N   0  0  0  0  0
    2.1957    8.3645    0.6176 N   0  0  0  0  0
    3.5812    5.9519    0.8719 O   0  0  0  0  0
    3.4882   -0.7761   -1.4099 O   0  0  0  0  0
    5.8757    7.0820    2.3090 O   0  0  0  0  0
    5.9955   -2.2949   -1.1387 O   0  0  0  0  0
    5.3670   -0.1377    0.6895 O   0  0  0  0  0
    2.4041    2.7845   -1.9611 O   0  0  0  0  0
    2.7944   -1.8444   -3.8381 O   0  0  0  0  0
    3.2790    3.6384    0.5686 O   0  0  0  0  0
    2.9008    0.9489    0.0677 O   0  0  0  0  0
  1  3  1  0  0  0
  1  4  1  0  0  0
  2  5  1  0  0  0
  2  7  1  0  0  0
  3  8  1  0  0  0
  3 19  1  0  0  0
  4  9  1  0  0  0
  4 20  1  0  0  0
  5 15  1  0  0  0
  5 21  1  0  0  0
  6 10  1  0  0  0
  6 11  1  0  0  0
  6 22  1  0  0  0
  7 13  1  0  0  0
  7 26  1  0  0  0
  8 12  1  0  0  0
  8 31  1  0  0  0
  9 12  1  0  0  0
  9 32  1  0  0  0
 10 14  1  0  0  0
 10 27  1  0  0  0
 11 16  1  0  0  0
 11 28  1  0  0  0
 12 29  1  0  0  0
 13 17  1  0  0  0
 13 24  1  0  0  0
 14 18  1  0  0  0
 14 25  1  0  0  0
 15 24  1  0  0  0
 15 31  1  0  0  0
 16 25  1  0  0  0
 16 32  1  0  0  0
 17 23  1  0  0  0
 18 30  1  0  0  0
M  CHG  5  19   1  20   1  21   1  22   1  23   1
M  END
> <rmsd>
0.500601947

$$$$
ZINC72400631


 32 34  0  0  0  0  0  0  0  0999 V2000
    0.9933    2.3562    2.0431 C   0  0  0  0  0
    6.2427    5.9649    0.3596 C   0  0  0  0  0
    0.9155    3.7290    1.3728 C   0  0  0  0  0
    0.7197    1.2162    1.0556 C   0  0  0  0  0
    5.4226    4.7043    0.6392 C   0  0  0  0  0
    4.5326   -2.3811    0.7476 C   0  0  0  0  0
    5.5440    7.2398    0.8440 C   0  0  0  0  0
    1.8571    3.8407    0.1670 C   0  0  0  0  0
    1.5579    1.3218   -0.2277 C   0  0  0  0  0
    4.7111   -2.7727   -0.7256 C   0  0  0  0  0
    4.1799   -0.9005    0.9164 C   0  0  0  0  0
    1.5652    2.7284   -0.8546 C   0  0  0  0  0
    4.0701    7.2579    0.4144 C   0  0  0  0  0
    3.6040   -2.1847   -1.6181 C   0  0  0  0  0
    3.9634    4.8902    0.2203 C   0  0  0  0  0
    3.0990   -0.4525   -0.0713 C   0  0  0  0  0
    3.3025    8.4312    1.0130 C   0  0  0  0  0
    3.8605   -2.4006   -3.1055 C   0  0  0  0  0
    1.2578    4.7708    2.3797 N   0  0  0  0  0
   -0.7278    1.2121    0.6989 N   0  0  0  0  0
    5.4732    4.4019    2.1014 N   0  0  0  0  0
    3.4476   -3.2108    1.3445 N   0  0  0  0  0
    1.9110    8.3939    0.5162 N   0  0  0  0  0
    3.4082    6.0564    0.8300 O   0  0  0  0  0
    3.4865   -0.7722   -1.4075 O   0  0  0  0  0
    5.6312    7.3230    2.2654 O   0  0  0  0  0
    5.9921   -2.2950   -1.1432 O   0  0  0  0  0
    5.3705   -0.1391    0.6890 O   0  0  0  0  0
    0.3024    2.9652   -1.4710 O   0  0  0  0  0
    3.9455   -3.7926   -3.3517 O   0  0  0  0  0
    3.2207    3.7256    0.5691 O   0  0  0  0  0
    2.9047    0.9520    0.0735 O   0  0  0  0  0
  1  3  1  0  0  0
  1  4  1  0  0  0
  2  5  1  0  0  0
  2  7  1  0  0  0
  3  8  1  0  0  0
  3 19  1  0  0  0
  4  9  1  0  0  0
  4 20  1  0  0  0
  5 15  1  0  0  0
  5 21  1  0  0  0
  6 10  1  0  0  0
  6 11  1  0  0  0
  6 22  1  0  0  0
  7 13  1  0  0  0
  7 26  1  0  0  0
  8 12  1  0  0  0
  8 31  1  0  0  0
  9 12  1  0  0  0
  9 32  1  0  0  0
 10 14  1  0  0  0
 10 27  1  0  0  0
 11 16  1  0  0  0
 11 28  1  0  0  0
 12 29  1  0  0  0
 13 17  1  0  0  0
 13 24  1  0  0  0
 14 18  1  0  0  0
 14 25  1  0  0  0
 15 24  1  0  0  0
 15 31  1  0  0  0
 16 25  1  0  0  0
 16 32  1  0  0  0
 17 23  1  0  0  0
 18 30  1  0  0  0
M  CHG  5  19   1  20   1  21   1  22   1  23   1
M  END
> <rmsd>
0.49236539

$$$$
ZINC72400629


 32 34  0  0  0  0  0  0  0  0999 V2000
    1.9620    3.7945    0.1829 C   0  0  0  0  0
    0.1148   -0.2649    6.0142 C   0  0  0  0  0
    1.1619    3.7190    1.4873 C   0  0  0  0  0
    1.5180    2.7324   -0.8297 C   0  0  0  0  0
   -0.3723    0.6981    4.9301 C   0  0  0  0  0
    4.5313   -2.3781    0.7514 C   0  0  0  0  0
    1.2628    0.3181    6.8453 C   0  0  0  0  0
    1.1356    2.2919    2.0510 C   0  0  0  0  0
    1.5478    1.3108   -0.2495 C   0  0  0  0  0
    4.7188   -2.7736   -0.7197 C   0  0  0  0  0
    4.1715   -0.8985    0.9138 C   0  0  0  0  0
    0.7026    1.2245    1.0303 C   0  0  0  0  0
    2.3321    0.9492    5.9421 C   0  0  0  0  0
    3.6137   -2.1930   -1.6196 C   0  0  0  0  0
    0.8022    1.2975    4.1552 C   0  0  0  0  0
    3.0937   -0.4582   -0.0807 C   0  0  0  0  0
    3.4091    1.6794    6.7362 C   0  0  0  0  0
    3.8786   -2.4124   -3.1050 C   0  0  0  0  0
   -0.2284    4.1987    1.2359 N   0  0  0  0  0
    2.4200    2.7981   -2.0134 N   0  0  0  0  0
   -1.1466    1.8040    5.5700 N   0  0  0  0  0
    3.4469   -3.2106    1.3454 N   0  0  0  0  0
    4.0455    0.7240    7.6671 N   0  0  0  0  0
    1.7405    1.9001    5.0477 O   0  0  0  0  0
    3.4892   -0.7803   -1.4138 O   0  0  0  0  0
    0.7520    1.3010    7.7442 O   0  0  0  0  0
    5.9998   -2.2917   -1.1323 O   0  0  0  0  0
    5.3600   -0.1328    0.6900 O   0  0  0  0  0
   -0.6751    1.3917    0.7053 O   0  0  0  0  0
    3.9707   -3.8048   -3.3464 O   0  0  0  0  0
    0.3102    2.2447    3.2115 O   0  0  0  0  0
    2.8927    0.9459    0.0588 O   0  0  0  0  0
  1  3  1  0  0  0
  1  4  1  0  0  0
  2  5  1  0  0  0
  2  7  1  0  0  0
  3  8  1  0  0  0
  3 19  1  0  0  0
  4  9  1  0  0  0
  4 20  1  0  0  0
  5 15  1  0  0  0
  5 21  1  0  0  0
  6 10  1  0  0  0
  6 11  1  0  0  0
  6 22  1  0  0  0
  7 13  1  0  0  0
  7 26  1  0  0  0
  8 12  1  0  0  0
  8 31  1  0  0  0
  9 12  1  0  0  0
  9 32  1  0  0  0
 10 14  1  0  0  0
 10 27  1  0  0  0
 11 16  1  0  0  0
 11 28  1  0  0  0
 12 29  1  0  0  0
 13 17  1  0  0  0
 13 24  1  0  0  0
 14 18  1  0  0  0
 14 25  1  0  0  0
 15 24  1  0  0  0
 15 31  1  0  0  0
 16 25  1  0  0  0
 16 32  1  0  0  0
 17 23  1  0  0  0
 18 30  1  0  0  0
M  CHG  5  19   1  20   1  21   1  22   1  23   1
M  END
> <rmsd>
0.518007994

$$$$
ZINC72400631


 32 34  0  0  0  0  0  0  0  0999 V2000
    1.9818    3.7931    0.8324 C   0  0  0  0  0
    0.8730    0.7909   -5.0874 C   0  0  0  0  0
    0.5742    3.7618    0.2343 C   0  0  0  0  0
    2.2567    2.5766    1.7236 C   0  0  0  0  0
    1.5223    1.5037   -3.8999 C   0  0  0  0  0
    4.5293   -2.3793    0.7499 C   0  0  0  0  0
   -0.5251    1.3324   -5.4050 C   0  0  0  0  0
    0.3026    2.4680   -0.5437 C   0  0  0  0  0
    1.9081    1.2445    1.0422 C   0  0  0  0  0
    4.7112   -2.7744   -0.7220 C   0  0  0  0  0
    4.1786   -0.8978    0.9145 C   0  0  0  0  0
    0.5320    1.2380    0.3510 C   0  0  0  0  0
   -1.3669    1.4677   -4.1281 C   0  0  0  0  0
    3.6075   -2.1865   -1.6188 C   0  0  0  0  0
    0.5481    1.6227   -2.7269 C   0  0  0  0  0
    3.1011   -0.4502   -0.0771 C   0  0  0  0  0
   -2.7052    2.1523   -4.3819 C   0  0  0  0  0
    3.8677   -2.4060   -3.1050 C   0  0  0  0  0
    0.4129    4.9364   -0.6660 N   0  0  0  0  0
    1.4722    2.7043    2.9848 N   0  0  0  0  0
    1.9432    2.8737   -4.3221 N   0  0  0  0  0
    3.4413   -3.2060    1.3456 N   0  0  0  0  0
   -3.4631    2.2026   -3.1140 N   0  0  0  0  0
   -0.6699    2.2415   -3.1433 O   0  0  0  0  0
    3.4917   -0.7733   -1.4115 O   0  0  0  0  0
   -0.4126    2.6032   -6.0432 O   0  0  0  0  0
    5.9941   -2.2996   -1.1370 O   0  0  0  0  0
    5.3710   -0.1388    0.6888 O   0  0  0  0  0
   -0.4845    1.1762    1.3479 O   0  0  0  0  0
    2.6413   -2.2796   -3.8017 O   0  0  0  0  0
    1.1646    2.3594   -1.6748 O   0  0  0  0  0
    2.9087    0.9549    0.0642 O   0  0  0  0  0
  1  3  1  0  0  0
  1  4  1  0  0  0
  2  5  1  0  0  0
  2  7  1  0  0  0
  3  8  1  0  0  0
  3 19  1  0  0  0
  4  9  1  0  0  0
  4 20  1  0  0  0
  5 15  1  0  0  0
  5 21  1  0  0  0
  6 10  1  0  0  0
  6 11  1  0  0  0
  6 22  1  0  0  0
  7 13  1  0  0  0
  7 26  1  0  0  0
  8 12  1  0  0  0
  8 31  1  0  0  0
  9 12  1  0  0  0
  9 32  1  0  0  0
 10 14  1  0  0  0
 10 27  1  0  0  0
 11 16  1  0  0  0
 11 28  1  0  0  0
 12 29  1  0  0  0
 13 17  1  0  0  0
 13 24  1  0  0  0
 14 18  1  0  0  0
 14 25  1  0  0  0
 15 24  1  0  0  0
 15 31  1  0  0  0
 16 25  1  0  0  0
 16 32  1  0  0  0
 17 23  1  0  0  0
 18 30  1  0  0  0
M  CHG  5  19   1  20   1  21   1  22   1  23   1
M  END
> <rmsd>
0.490687102

$$$$
ZINC72400629


 32 34  0  0  0  0  0  0  0  0999 V2000
    1.9619    3.7947    0.1823 C   0  0  0  0  0
    2.4157    1.6201    6.2717 C   0  0  0  0  0
    1.1618    3.7192    1.4867 C   0  0  0  0  0
    1.5179    2.7326   -0.8303 C   0  0  0  0  0
    1.6811    1.3186    4.9643 C   0  0  0  0  0
    4.5312   -2.3779    0.7508 C   0  0  0  0  0
    1.5819    2.4775    7.2300 C   0  0  0  0  0
    1.1355    2.2921    2.0504 C   0  0  0  0  0
    1.5478    1.3110   -0.2501 C   0  0  0  0  0
    4.7188   -2.7733   -0.7203 C   0  0  0  0  0
    4.1714   -0.8983    0.9132 C   0  0  0  0  0
    0.7025    1.2247    1.0297 C   0  0  0  0  0
    0.9490    3.6680    6.4957 C   0  0  0  0  0
    3.6137   -2.1928   -1.6201 C   0  0  0  0  0
    1.0480    2.5833    4.3818 C   0  0  0  0  0
    3.0936   -0.4580   -0.0813 C   0  0  0  0  0
   -0.0152    4.4520    7.3786 C   0  0  0  0  0
    3.8786   -2.4122   -3.1055 C   0  0  0  0  0
   -0.2285    4.1989    1.2353 N   0  0  0  0  0
    2.4199    2.7983   -2.0140 N   0  0  0  0  0
    0.6062    0.3146    5.2274 N   0  0  0  0  0
    3.4468   -3.2104    1.3448 N   0  0  0  0  0
   -0.5431    5.5977    6.6082 N   0  0  0  0  0
    0.2135    3.2214    5.3494 O   0  0  0  0  0
    3.4891   -0.7801   -1.4144 O   0  0  0  0  0
    0.5587    1.6781    7.8205 O   0  0  0  0  0
    5.9997   -2.2915   -1.1329 O   0  0  0  0  0
    5.3599   -0.1326    0.6894 O   0  0  0  0  0
   -0.6752    1.3919    0.7047 O   0  0  0  0  0
    2.8055   -1.8547   -3.8427 O   0  0  0  0  0
    0.3101    2.2449    3.2109 O   0  0  0  0  0
    2.8926    0.9461    0.0582 O   0  0  0  0  0
  1  3  1  0  0  0
  1  4  1  0  0  0
  2  5  1  0  0  0
  2  7  1  0  0  0
  3  8  1  0  0  0
  3 19  1  0  0  0
  4  9  1  0  0  0
  4 20  1  0  0  0
  5 15  1  0  0  0
  5 21  1  0  0  0
  6 10  1  0  0  0
  6 11  1  0  0  0
  6 22  1  0  0  0
  7 13  1  0  0  0
  7 26  1  0  0  0
  8 12  1  0  0  0
  8 31  1  0  0  0
  9 12  1  0  0  0
  9 32  1  0  0  0
 10 14  1  0  0  0
 10 27  1  0  0  0
 11 16  1  0  0  0
 11 28  1  0  0  0
 12 29  1  0  0  0
 13 17  1  0  0  0
 13 24  1  0  0  0
 14 18  1  0  0  0
 14 25  1  0  0  0
 15 24  1  0  0  0
 15 31  1  0  0  0
 16 25  1  0  0  0
 16 32  1  0  0  0
 17 23  1  0  0  0
 18 30  1  0  0  0
M  CHG  5  19   1  20   1  21   1  22   1  23   1
M  END
> <rmsd>
0.518008113

$$$$
ZINC72400629


 32 34  0  0  0  0  0  0  0  0999 V2000
    1.9623    3.7945    0.1832 C   0  0  0  0  0
    0.9177    1.5326    6.8611 C   0  0  0  0  0
    1.1622    3.7191    1.4876 C   0  0  0  0  0
    1.5183    2.7324   -0.8294 C   0  0  0  0  0
    0.1354    1.8229    5.5789 C   0  0  0  0  0
    4.5316   -2.3781    0.7518 C   0  0  0  0  0
    2.1633    2.4143    7.0017 C   0  0  0  0  0
    1.1360    2.2919    2.0513 C   0  0  0  0  0
    1.5482    1.3108   -0.2491 C   0  0  0  0  0
    4.7192   -2.7735   -0.7194 C   0  0  0  0  0
    4.1718   -0.8985    0.9142 C   0  0  0  0  0
    0.7029    1.2245    1.0307 C   0  0  0  0  0
    2.9624    2.4526    5.6912 C   0  0  0  0  0
    3.6141   -2.1930   -1.6192 C   0  0  0  0  0
    1.0668    1.8959    4.3679 C   0  0  0  0  0
    3.0940   -0.4582   -0.0804 C   0  0  0  0  0
    4.1190    3.4443    5.7424 C   0  0  0  0  0
    3.8790   -2.4123   -3.1046 C   0  0  0  0  0
   -0.2281    4.1988    1.2363 N   0  0  0  0  0
    2.4203    2.7981   -2.0131 N   0  0  0  0  0
   -0.5748    3.1294    5.7245 N   0  0  0  0  0
    3.4472   -3.2106    1.3457 N   0  0  0  0  0
    4.8546    3.3855    4.4617 N   0  0  0  0  0
    2.1194    2.8337    4.5966 O   0  0  0  0  0
    3.4896   -0.7803   -1.4135 O   0  0  0  0  0
    1.7746    3.7374    7.3663 O   0  0  0  0  0
    6.0002   -2.2916   -1.1320 O   0  0  0  0  0
    5.3604   -0.1327    0.6903 O   0  0  0  0  0
   -0.6747    1.3917    0.7056 O   0  0  0  0  0
    5.0953   -1.7723   -3.4457 O   0  0  0  0  0
    0.3106    2.2447    3.2118 O   0  0  0  0  0
    2.8930    0.9459    0.0592 O   0  0  0  0  0
  1  3  1  0  0  0
  1  4  1  0  0  0
  2  5  1  0  0  0
  2  7  1  0  0  0
  3  8  1  0  0  0
  3 19  1  0  0  0
  4  9  1  0  0  0
  4 20  1  0  0  0
  5 15  1  0  0  0
  5 21  1  0  0  0
  6 10  1  0  0  0
  6 11  1  0  0  0
  6 22  1  0  0  0
  7 13  1  0  0  0
  7 26  1  0  0  0
  8 12  1  0  0  0
  8 31  1  0  0  0
  9 12  1  0  0  0
  9 32  1  0  0  0
 10 14  1  0  0  0
 10 27  1  0  0  0
 11 16  1  0  0  0
 11 28  1  0  0  0
 12 29  1  0  0  0
 13 17  1  0  0  0
 13 24  1  0  0  0
 14 18  1  0  0  0
 14 25  1  0  0  0
 15 24  1  0  0  0
 15 31  1  0  0  0
 16 25  1  0  0  0
 16 32  1  0  0  0
 17 23  1  0  0  0
 18 30  1  0  0  0
M  CHG  5  19   1  20   1  21   1  22   1  23   1
M  END
> <rmsd>
0.518008053

$$$$
ZINC72400631


 32 34  0  0  0  0  0  0  0  0999 V2000
    1.9823    3.7934    0.8321 C   0  0  0  0  0
    0.6351    2.1207   -5.3969 C   0  0  0  0  0
    0.5747    3.7620    0.2340 C   0  0  0  0  0
    2.2571    2.5769    1.7234 C   0  0  0  0  0
    1.3860    2.1279   -4.0643 C   0  0  0  0  0
    4.5295   -2.3792    0.7503 C   0  0  0  0  0
   -0.4000    3.2465   -5.4942 C   0  0  0  0  0
    0.3030    2.4682   -0.5439 C   0  0  0  0  0
    1.9085    1.2447    1.0421 C   0  0  0  0  0
    4.7114   -2.7744   -0.7216 C   0  0  0  0  0
    4.1788   -0.8976    0.9148 C   0  0  0  0  0
    0.5323    1.2383    0.3510 C   0  0  0  0  0
   -1.2482    3.3274   -4.2170 C   0  0  0  0  0
    3.6077   -2.1866   -1.6185 C   0  0  0  0  0
    0.4210    2.2785   -2.8871 C   0  0  0  0  0
    3.1014   -0.4501   -0.0770 C   0  0  0  0  0
   -2.1794    4.5344   -4.2108 C   0  0  0  0  0
    3.8680   -2.4062   -3.1046 C   0  0  0  0  0
    0.4135    4.9366   -0.6664 N   0  0  0  0  0
    1.4726    2.7048    2.9846 N   0  0  0  0  0
    2.3491    3.2700   -4.0515 N   0  0  0  0  0
    3.4414   -3.2057    1.3460 N   0  0  0  0  0
   -2.9830    4.5104   -2.9706 N   0  0  0  0  0
   -0.4092    3.4278   -3.0592 O   0  0  0  0  0
    3.4921   -0.7733   -1.4113 O   0  0  0  0  0
    0.2643    4.4903   -5.7095 O   0  0  0  0  0
    5.9943   -2.2998   -1.1366 O   0  0  0  0  0
    5.3713   -0.1388    0.6890 O   0  0  0  0  0
   -0.4842    1.1766    1.3479 O   0  0  0  0  0
    3.9513   -3.7990   -3.3475 O   0  0  0  0  0
    1.1650    2.3594   -1.6750 O   0  0  0  0  0
    2.9090    0.9550    0.0642 O   0  0  0  0  0
  1  3  1  0  0  0
  1  4  1  0  0  0
  2  5  1  0  0  0
  2  7  1  0  0  0
  3  8  1  0  0  0
  3 19  1  0  0  0
  4  9  1  0  0  0
  4 20  1  0  0  0
  5 15  1  0  0  0
  5 21  1  0  0  0
  6 10  1  0  0  0
  6 11  1  0  0  0
  6 22  1  0  0  0
  7 13  1  0  0  0
  7 26  1  0  0  0
  8 12  1  0  0  0
  8 31  1  0  0  0
  9 12  1  0  0  0
  9 32  1  0  0  0
 10 14  1  0  0  0
 10 27  1  0  0  0
 11 16  1  0  0  0
 11 28  1  0  0  0
 12 29  1  0  0  0
 13 17  1  0  0  0
 13 24  1  0  0  0
 14 18  1  0  0  0
 14 25  1  0  0  0
 15 24  1  0  0  0
 15 31  1  0  0  0
 16 25  1  0  0  0
 16 32  1  0  0  0
 17 23  1  0  0  0
 18 30  1  0  0  0
M  CHG  5  19   1  20   1  21   1  22   1  23   1
M  END
> <rmsd>
0.490650952

$$$$
ZINC72400629


 32 34  0  0  0  0  0  0  0  0999 V2000
    1.9623    3.7948    0.1826 C   0  0  0  0  0
    1.1844    2.2172    6.8755 C   0  0  0  0  0
    1.1623    3.7194    1.4870 C   0  0  0  0  0
    1.5184    2.7327   -0.8300 C   0  0  0  0  0
    0.4761    1.8218    5.5787 C   0  0  0  0  0
    4.5317   -2.3778    0.7512 C   0  0  0  0  0
    1.3255    3.7355    7.0286 C   0  0  0  0  0
    1.1360    2.2922    2.0507 C   0  0  0  0  0
    1.5482    1.3111   -0.2497 C   0  0  0  0  0
    4.7192   -2.7732   -0.7200 C   0  0  0  0  0
    4.1719   -0.8982    0.9135 C   0  0  0  0  0
    0.7030    1.2248    1.0301 C   0  0  0  0  0
    1.8395    4.3750    5.7308 C   0  0  0  0  0
    3.6141   -2.1927   -1.6198 C   0  0  0  0  0
    1.0484    2.5834    4.3821 C   0  0  0  0  0
    3.0941   -0.4579   -0.0810 C   0  0  0  0  0
    1.8407    5.8983    5.7919 C   0  0  0  0  0
    3.8790   -2.4120   -3.1052 C   0  0  0  0  0
   -0.2281    4.1991    1.2357 N   0  0  0  0  0
    2.4204    2.7984   -2.0137 N   0  0  0  0  0
   -0.9798    2.1341    5.7016 N   0  0  0  0  0
    3.4473   -3.2103    1.3451 N   0  0  0  0  0
    2.3863    6.4260    4.5238 N   0  0  0  0  0
    1.0196    3.9914    4.6196 O   0  0  0  0  0
    3.4896   -0.7800   -1.4141 O   0  0  0  0  0
    0.0627    4.3011    7.3756 O   0  0  0  0  0
    6.0002   -2.2913   -1.1326 O   0  0  0  0  0
    5.3604   -0.1324    0.6897 O   0  0  0  0  0
   -0.6747    1.3920    0.7050 O   0  0  0  0  0
    2.8060   -1.8546   -3.8424 O   0  0  0  0  0
    0.3106    2.2450    3.2112 O   0  0  0  0  0
    2.8931    0.9462    0.0585 O   0  0  0  0  0
  1  3  1  0  0  0
  1  4  1  0  0  0
  2  5  1  0  0  0
  2  7  1  0  0  0
  3  8  1  0  0  0
  3 19  1  0  0  0
  4  9  1  0  0  0
  4 20  1  0  0  0
  5 15  1  0  0  0
  5 21  1  0  0  0
  6 10  1  0  0  0
  6 11  1  0  0  0
  6 22  1  0  0  0
  7 13  1  0  0  0
  7 26  1  0  0  0
  8 12  1  0  0  0
  8 31  1  0  0  0
  9 12  1  0  0  0
  9 32  1  0  0  0
 10 14  1  0  0  0
 10 27  1  0  0  0
 11 16  1  0  0  0
 11 28  1  0  0  0
 12 29  1  0  0  0
 13 17  1  0  0  0
 13 24  1  0  0  0
 14 18  1  0  0  0
 14 25  1  0  0  0
 15 24  1  0  0  0
 15 31  1  0  0  0
 16 25  1  0  0  0
 16 32  1  0  0  0
 17 23  1  0  0  0
 18 30  1  0  0  0
M  CHG  5  19   1  20   1  21   1  22   1  23   1
M  END
> <rmsd>
0.518007994

$$$$
ZINC72332893


 33 35  0  0  0  0  0  0  0  0999 V2000
    6.0254    5.1257    1.5291 C   0  0  0  0  0
    5.1363    6.0316    1.0857 C   0  0  0  0  0
    6.2068    3.7886    0.8791 C   0  0  0  0  0
    1.0848    2.3851    2.0610 C   0  0  0  0  0
    3.5714   -2.2113   -1.6050 C   0  0  0  0  0
    5.5087    3.7603   -0.4837 C   0  0  0  0  0
    1.0063    3.7529    1.3807 C   0  0  0  0  0
    0.7738    1.2399    1.0908 C   0  0  0  0  0
    4.5519   -2.4004    0.7232 C   0  0  0  0  0
    1.9176    3.8431    0.1499 C   0  0  0  0  0
    1.5836    1.3237   -0.2119 C   0  0  0  0  0
    4.2022   -0.9179    0.9075 C   0  0  0  0  0
    1.5901    2.7248   -0.8530 C   0  0  0  0  0
    4.1350    4.4374   -0.3803 C   0  0  0  0  0
    3.1127   -0.4627   -0.0729 C   0  0  0  0  0
    4.7123   -2.7954   -0.7635 C   0  0  0  0  0
    6.0645   -2.3288   -1.3252 C   0  0  0  0  0
   -2.6672    0.1021   -0.0747 C   0  0  0  0  0
    3.2148   -2.9271    2.7738 C   0  0  0  0  0
    4.9887    7.3849    1.7048 C   0  0  0  0  0
   -1.1814   -0.0192    0.1841 C   0  0  0  0  0
    5.3994    2.3883   -0.9702 N   0  0  0  0  0
    1.3869    4.7992    2.3692 N   0  0  0  0  0
    3.6269    7.6365    2.2277 N   0  0  0  0  0
    3.4485   -3.2097    1.3345 N   0  0  0  0  0
   -0.6815    1.2513    0.7671 N   0  0  0  0  0
    4.2745    5.8094    0.0265 O   0  0  0  0  0
    3.4635   -0.8003   -1.4158 O   0  0  0  0  0
    5.3731   -0.1264    0.6978 O   0  0  0  0  0
    0.3194    3.0002   -1.4367 O   0  0  0  0  0
    4.6866   -4.2193   -0.8964 O   0  0  0  0  0
    3.2897    3.7202    0.5187 O   0  0  0  0  0
    2.9336    0.9449    0.0627 O   0  0  0  0  0
  2 27  1  0  0  0
  3  1  1  0  0  0
  3  6  1  0  0  0
  4  7  1  0  0  0
  4  8  1  0  0  0
  5 16  1  0  0  0
  5 28  1  0  0  0
  6 14  1  0  0  0
  6 22  1  0  0  0
  7 10  1  0  0  0
  7 23  1  0  0  0
  8 11  1  0  0  0
  8 26  1  0  0  0
  9 12  1  0  0  0
  9 16  1  0  0  0
  9 25  1  0  0  0
 10 13  1  0  0  0
 10 32  1  0  0  0
 11 13  1  0  0  0
 11 33  1  0  0  0
 12 15  1  0  0  0
 12 29  1  0  0  0
 13 30  1  0  0  0
 14 27  1  0  0  0
 14 32  1  0  0  0
 15 28  1  0  0  0
 15 33  1  0  0  0
 16 17  1  0  0  0
 16 31  1  0  0  0
 18 21  1  0  0  0
 19 25  1  0  0  0
 20  2  1  0  0  0
 20 24  1  0  0  0
 21 26  1  0  0  0
  1  2  2  0  0  0
M  CHG  4  23   1  24   1  25   1  26   1
M  END
> <rmsd>
0.514578164

$$$$
ZINC72332893


 33 35  0  0  0  0  0  0  0  0999 V2000
    5.0969    6.2114    1.5227 C   0  0  0  0  0
    4.1697    6.5988    0.6295 C   0  0  0  0  0
    5.8262    4.9077    1.4145 C   0  0  0  0  0
    1.0852    2.3847    2.0608 C   0  0  0  0  0
    3.5721   -2.2115   -1.6053 C   0  0  0  0  0
    5.6071    4.2889    0.0307 C   0  0  0  0  0
    1.0068    3.7525    1.3806 C   0  0  0  0  0
    0.7743    1.2395    1.0904 C   0  0  0  0  0
    4.5523   -2.4008    0.7230 C   0  0  0  0  0
    1.9182    3.8428    0.1498 C   0  0  0  0  0
    1.5841    1.3234   -0.2122 C   0  0  0  0  0
    4.2026   -0.9183    0.9074 C   0  0  0  0  0
    1.5907    2.7246   -0.8532 C   0  0  0  0  0
    4.1356    4.4371   -0.3801 C   0  0  0  0  0
    3.1133   -0.4630   -0.0731 C   0  0  0  0  0
    4.7129   -2.7957   -0.7637 C   0  0  0  0  0
    6.0651   -2.3290   -1.3253 C   0  0  0  0  0
   -2.9817    0.6798    1.3610 C   0  0  0  0  0
    3.2150   -2.9276    2.7734 C   0  0  0  0  0
    3.4762    7.9213    0.7107 C   0  0  0  0  0
   -1.5317    0.5805    1.7819 C   0  0  0  0  0
    6.0313    2.8921    0.0259 N   0  0  0  0  0
    1.3873    4.7987    2.3692 N   0  0  0  0  0
    3.7100    8.7713   -0.4784 N   0  0  0  0  0
    3.4489   -3.2102    1.3342 N   0  0  0  0  0
   -0.6810    1.2509    0.7667 N   0  0  0  0  0
    3.7631    5.8245   -0.4424 O   0  0  0  0  0
    3.4642   -0.8005   -1.4160 O   0  0  0  0  0
    5.3736   -0.1268    0.6978 O   0  0  0  0  0
    0.3202    3.0000   -1.4370 O   0  0  0  0  0
    4.6872   -4.2196   -0.8967 O   0  0  0  0  0
    3.2902    3.7199    0.5188 O   0  0  0  0  0
    2.9342    0.9445    0.0626 O   0  0  0  0  0
  2 27  1  0  0  0
  3  1  1  0  0  0
  3  6  1  0  0  0
  4  7  1  0  0  0
  4  8  1  0  0  0
  5 16  1  0  0  0
  5 28  1  0  0  0
  6 14  1  0  0  0
  6 22  1  0  0  0
  7 10  1  0  0  0
  7 23  1  0  0  0
  8 11  1  0  0  0
  8 26  1  0  0  0
  9 12  1  0  0  0
  9 16  1  0  0  0
  9 25  1  0  0  0
 10 13  1  0  0  0
 10 32  1  0  0  0
 11 13  1  0  0  0
 11 33  1  0  0  0
 12 15  1  0  0  0
 12 29  1  0  0  0
 13 30  1  0  0  0
 14 27  1  0  0  0
 14 32  1  0  0  0
 15 28  1  0  0  0
 15 33  1  0  0  0
 16 17  1  0  0  0
 16 31  1  0  0  0
 18 21  1  0  0  0
 19 25  1  0  0  0
 20  2  1  0  0  0
 20 24  1  0  0  0
 21 26  1  0  0  0
  1  2  2  0  0  0
M  CHG  4  23   1  24   1  25   1  26   1
M  END
> <rmsd>
0.514837027

$$$$
ZINC72332894


 33 35  0  0  0  0  0  0  0  0999 V2000
   -0.7776    0.7164   -4.9888 C   0  0  0  0  0
   -1.3729    1.5474   -4.1157 C   0  0  0  0  0
    0.6769    0.3639   -4.9071 C   0  0  0  0  0
    2.1294    3.7785    0.7600 C   0  0  0  0  0
    3.5670   -2.2074   -1.6050 C   0  0  0  0  0
    1.4258    1.2632   -3.9165 C   0  0  0  0  0
    0.7228    3.7838    0.1591 C   0  0  0  0  0
    2.2655    2.6048    1.7315 C   0  0  0  0  0
    4.5511   -2.4000    0.7214 C   0  0  0  0  0
    0.3780    2.4637   -0.5466 C   0  0  0  0  0
    1.9653    1.2529    1.0675 C   0  0  0  0  0
    4.2031   -0.9172    0.9078 C   0  0  0  0  0
    0.5758    1.2653    0.4007 C   0  0  0  0  0
    0.5274    1.5090   -2.6936 C   0  0  0  0  0
    3.1124   -0.4601   -0.0703 C   0  0  0  0  0
    4.7087   -2.7935   -0.7660 C   0  0  0  0  0
    6.0605   -2.3274   -1.3295 C   0  0  0  0  0
    5.2137    1.9308    4.0401 C   0  0  0  0  0
    3.2169   -2.9276    2.7735 C   0  0  0  0  0
   -2.8115    1.9393   -4.2287 C   0  0  0  0  0
    3.7703    1.8898    3.5880 C   0  0  0  0  0
    1.7867    2.5271   -4.5705 N   0  0  0  0  0
    0.6141    4.9170   -0.7981 N   0  0  0  0  0
   -3.6142    1.5401   -3.0508 N   0  0  0  0  0
    3.4480   -3.2089    1.3336 N   0  0  0  0  0
    3.6436    2.6026    2.2912 N   0  0  0  0  0
   -0.7242    2.1206   -3.0371 O   0  0  0  0  0
    3.4606   -0.7965   -1.4141 O   0  0  0  0  0
    5.3745   -0.1266    0.6971 O   0  0  0  0  0
   -0.4354    1.3119    1.4046 O   0  0  0  0  0
    4.6816   -4.2171   -0.9004 O   0  0  0  0  0
    1.2036    2.2658   -1.6925 O   0  0  0  0  0
    2.9349    0.9476    0.0671 O   0  0  0  0  0
  2 27  1  0  0  0
  3  1  1  0  0  0
  3  6  1  0  0  0
  4  7  1  0  0  0
  4  8  1  0  0  0
  5 16  1  0  0  0
  5 28  1  0  0  0
  6 14  1  0  0  0
  6 22  1  0  0  0
  7 10  1  0  0  0
  7 23  1  0  0  0
  8 11  1  0  0  0
  8 26  1  0  0  0
  9 12  1  0  0  0
  9 16  1  0  0  0
  9 25  1  0  0  0
 10 13  1  0  0  0
 10 32  1  0  0  0
 11 13  1  0  0  0
 11 33  1  0  0  0
 12 15  1  0  0  0
 12 29  1  0  0  0
 13 30  1  0  0  0
 14 27  1  0  0  0
 14 32  1  0  0  0
 15 28  1  0  0  0
 15 33  1  0  0  0
 16 17  1  0  0  0
 16 31  1  0  0  0
 18 21  1  0  0  0
 19 25  1  0  0  0
 20  2  1  0  0  0
 20 24  1  0  0  0
 21 26  1  0  0  0
  1  2  2  0  0  0
M  CHG  4  23   1  24   1  25   1  26   1
M  END
> <rmsd>
0.514423788

$$$$
ZINC72332893


 33 35  0  0  0  0  0  0  0  0999 V2000
    0.4736    3.6819   -4.5284 C   0  0  0  0  0
   -0.6398    3.3316   -3.8613 C   0  0  0  0  0
    1.7220    2.8547   -4.5049 C   0  0  0  0  0
    2.0574    3.8006    0.8106 C   0  0  0  0  0
    3.5746   -2.2126   -1.6060 C   0  0  0  0  0
    1.4315    1.4697   -3.9192 C   0  0  0  0  0
    0.6374    3.7773    0.2423 C   0  0  0  0  0
    2.3380    2.5921    1.7108 C   0  0  0  0  0
    4.5490   -2.3990    0.7251 C   0  0  0  0  0
    0.3346    2.4765   -0.5126 C   0  0  0  0  0
    1.9637    1.2561    1.0516 C   0  0  0  0  0
    4.2018   -0.9153    0.9055 C   0  0  0  0  0
    0.5718    1.2552    0.3907 C   0  0  0  0  0
    0.5177    1.6029   -2.6931 C   0  0  0  0  0
    3.1157   -0.4600   -0.0785 C   0  0  0  0  0
    4.7121   -2.7973   -0.7605 C   0  0  0  0  0
    6.0666   -2.3345   -1.3198 C   0  0  0  0  0
    1.2450    2.1339    5.3286 C   0  0  0  0  0
    3.2058   -2.9188    2.7733 C   0  0  0  0  0
   -1.9014    4.1323   -3.9235 C   0  0  0  0  0
    2.0693    1.8753    4.0865 C   0  0  0  0  0
    2.6783    0.7847   -3.5919 N   0  0  0  0  0
    0.4703    4.9419   -0.6702 N   0  0  0  0  0
   -3.0449    3.3689   -4.4722 N   0  0  0  0  0
    3.4424   -3.2048    1.3353 N   0  0  0  0  0
    1.5790    2.7417    2.9852 N   0  0  0  0  0
   -0.7339    2.2106   -3.0561 O   0  0  0  0  0
    3.4689   -0.8010   -1.4199 O   0  0  0  0  0
    5.3748   -0.1267    0.6970 O   0  0  0  0  0
   -0.4433    1.2299    1.3908 O   0  0  0  0  0
    4.6840   -4.2214   -0.8906 O   0  0  0  0  0
    1.1679    2.3461   -1.6625 O   0  0  0  0  0
    2.9391    0.9483    0.0539 O   0  0  0  0  0
  2 27  1  0  0  0
  3  1  1  0  0  0
  3  6  1  0  0  0
  4  7  1  0  0  0
  4  8  1  0  0  0
  5 16  1  0  0  0
  5 28  1  0  0  0
  6 14  1  0  0  0
  6 22  1  0  0  0
  7 10  1  0  0  0
  7 23  1  0  0  0
  8 11  1  0  0  0
  8 26  1  0  0  0
  9 12  1  0  0  0
  9 16  1  0  0  0
  9 25  1  0  0  0
 10 13  1  0  0  0
 10 32  1  0  0  0
 11 13  1  0  0  0
 11 33  1  0  0  0
 12 15  1  0  0  0
 12 29  1  0  0  0
 13 30  1  0  0  0
 14 27  1  0  0  0
 14 32  1  0  0  0
 15 28  1  0  0  0
 15 33  1  0  0  0
 16 17  1  0  0  0
 16 31  1  0  0  0
 18 21  1  0  0  0
 19 25  1  0  0  0
 20  2  1  0  0  0
 20 24  1  0  0  0
 21 26  1  0  0  0
  1  2  2  0  0  0
M  CHG  4  23   1  24   1  25   1  26   1
M  END
> <rmsd>
0.511758387

$$$$
ZINC72332894


 33 35  0  0  0  0  0  0  0  0999 V2000
   -0.7726    2.6425   -5.3172 C   0  0  0  0  0
   -1.1052    3.3701   -4.2369 C   0  0  0  0  0
    0.4037    1.7139   -5.3366 C   0  0  0  0  0
    2.1292    3.7784    0.7609 C   0  0  0  0  0
    3.5670   -2.2072   -1.6046 C   0  0  0  0  0
    1.3070    1.9141   -4.1138 C   0  0  0  0  0
    0.7225    3.7838    0.1599 C   0  0  0  0  0
    2.2652    2.6046    1.7324 C   0  0  0  0  0
    4.5510   -2.4000    0.7219 C   0  0  0  0  0
    0.3778    2.4637   -0.5459 C   0  0  0  0  0
    1.9650    1.2528    1.0682 C   0  0  0  0  0
    4.2029   -0.9173    0.9084 C   0  0  0  0  0
    0.5756    1.2652    0.4013 C   0  0  0  0  0
    0.4236    2.1625   -2.8805 C   0  0  0  0  0
    3.1123   -0.4601   -0.0698 C   0  0  0  0  0
    4.7086   -2.7934   -0.7656 C   0  0  0  0  0
    6.0605   -2.3272   -1.3289 C   0  0  0  0  0
    5.2133    1.9304    4.0410 C   0  0  0  0  0
    3.2167   -2.9278    2.7738 C   0  0  0  0  0
   -2.2474    4.3350   -4.2353 C   0  0  0  0  0
    3.7699    1.8895    3.5888 C   0  0  0  0  0
    2.2161    3.0427   -4.3493 N   0  0  0  0  0
    0.6139    4.9171   -0.7971 N   0  0  0  0  0
   -1.8331    5.7218   -3.9247 N   0  0  0  0  0
    3.4478   -3.2090    1.3340 N   0  0  0  0  0
    3.6432    2.6023    2.2921 N   0  0  0  0  0
   -0.4322    3.3042   -3.0304 O   0  0  0  0  0
    3.4606   -0.7963   -1.4136 O   0  0  0  0  0
    5.3743   -0.1266    0.6978 O   0  0  0  0  0
   -0.4357    1.3117    1.4051 O   0  0  0  0  0
    4.6816   -4.2170   -0.9001 O   0  0  0  0  0
    1.2035    2.2659   -1.6918 O   0  0  0  0  0
    2.9347    0.9475    0.0679 O   0  0  0  0  0
  2 27  1  0  0  0
  3  1  1  0  0  0
  3  6  1  0  0  0
  4  7  1  0  0  0
  4  8  1  0  0  0
  5 16  1  0  0  0
  5 28  1  0  0  0
  6 14  1  0  0  0
  6 22  1  0  0  0
  7 10  1  0  0  0
  7 23  1  0  0  0
  8 11  1  0  0  0
  8 26  1  0  0  0
  9 12  1  0  0  0
  9 16  1  0  0  0
  9 25  1  0  0  0
 10 13  1  0  0  0
 10 32  1  0  0  0
 11 13  1  0  0  0
 11 33  1  0  0  0
 12 15  1  0  0  0
 12 29  1  0  0  0
 13 30  1  0  0  0
 14 27  1  0  0  0
 14 32  1  0  0  0
 15 28  1  0  0  0
 15 33  1  0  0  0
 16 17  1  0  0  0
 16 31  1  0  0  0
 18 21  1  0  0  0
 19 25  1  0  0  0
 20  2  1  0  0  0
 20 24  1  0  0  0
 21 26  1  0  0  0
  1  2  2  0  0  0
M  CHG  4  23   1  24   1  25   1  26   1
M  END
> <rmsd>
0.514659584

$$$$
ZINC38139392


 33 35  0  0  0  0  0  0  0  0999 V2000
   -2.2589    2.3852   -3.8028 C   0  0  0  0  0
   -0.9811    2.2332   -4.6235 C   0  0  0  0  0
    1.1164    3.4283    1.9839 C   0  0  0  0  0
    3.6575   -2.2662   -1.6142 C   0  0  0  0  0
   -2.1760    3.6614   -2.9725 C   0  0  0  0  0
    0.1074    3.7014    0.8590 C   0  0  0  0  0
    2.3399    2.6787    1.4629 C   0  0  0  0  0
    4.5301   -2.3869    0.7610 C   0  0  0  0  0
    0.2511    2.7307   -0.3251 C   0  0  0  0  0
    1.9807    1.3075    0.8590 C   0  0  0  0  0
    4.1951   -0.8941    0.8781 C   0  0  0  0  0
    0.6312    1.3131    0.1153 C   0  0  0  0  0
    0.2567    2.3443   -3.7290 C   0  0  0  0  0
   -0.9010    3.7031   -2.1297 C   0  0  0  0  0
    3.1576   -0.4588   -0.1655 C   0  0  0  0  0
    4.7506   -2.8360   -0.7025 C   0  0  0  0  0
    6.1334   -2.4078   -1.2184 C   0  0  0  0  0
    1.7204    1.0103   -5.2950 C   0  0  0  0  0
    3.0979   -2.8232    2.7657 C   0  0  0  0  0
    4.0087    2.5641   -4.3326 C   0  0  0  0  0
    1.5328    2.3266   -4.5601 C   0  0  0  0  0
   -3.3684    3.7547   -2.0943 N   0  0  0  0  0
   -1.2647    3.6228    1.4399 N   0  0  0  0  0
    3.2853    2.4699    2.5983 N   0  0  0  0  0
    3.3884   -3.1591    1.3494 N   0  0  0  0  0
    2.6899    2.5293   -3.6474 N   0  0  0  0  0
    3.5626   -0.8481   -1.4789 O   0  0  0  0  0
    0.2419    3.5681   -2.9833 O   0  0  0  0  0
    5.3861   -0.1265    0.6942 O   0  0  0  0  0
   -0.3864    0.8101    0.9828 O   0  0  0  0  0
    4.7093   -4.2631   -0.7873 O   0  0  0  0  0
   -0.9291    2.6966   -1.1206 O   0  0  0  0  0
    2.9940    0.9550   -0.0866 O   0  0  0  0  0
  1  2  1  0  0  0
  1  5  1  0  0  0
  2 13  1  0  0  0
  3  6  1  0  0  0
  3  7  1  0  0  0
  4 16  1  0  0  0
  4 27  1  0  0  0
  5 14  1  0  0  0
  5 22  1  0  0  0
  6  9  1  0  0  0
  6 23  1  0  0  0
  7 10  1  0  0  0
  7 24  1  0  0  0
  8 11  1  0  0  0
  8 16  1  0  0  0
  8 25  1  0  0  0
  9 12  1  0  0  0
  9 32  1  0  0  0
 10 12  1  0  0  0
 10 33  1  0  0  0
 11 15  1  0  0  0
 11 29  1  0  0  0
 12 30  1  0  0  0
 13 21  1  0  0  0
 13 28  1  0  0  0
 14 28  1  0  0  0
 14 32  1  0  0  0
 15 27  1  0  0  0
 15 33  1  0  0  0
 16 17  1  0  0  0
 16 31  1  0  0  0
 18 21  1  0  0  0
 19 25  1  0  0  0
 20 26  1  0  0  0
 21 26  1  0  0  0
M  CHG  5  22   1  23   1  24   1  25   1  26   1
M  END
> <rmsd>
0.502213359

$$$$
ZINC38139393


 33 35  0  0  0  0  0  0  0  0999 V2000
   -2.2593    2.3849   -3.8032 C   0  0  0  0  0
   -0.9815    2.2329   -4.6238 C   0  0  0  0  0
    1.1160    3.4280    1.9836 C   0  0  0  0  0
    3.6572   -2.2664   -1.6146 C   0  0  0  0  0
   -2.1763    3.6612   -2.9728 C   0  0  0  0  0
    0.1071    3.7012    0.8587 C   0  0  0  0  0
    2.3395    2.6785    1.4625 C   0  0  0  0  0
    4.5298   -2.3871    0.7607 C   0  0  0  0  0
    0.2507    2.7305   -0.3255 C   0  0  0  0  0
    1.9803    1.3073    0.8587 C   0  0  0  0  0
    4.1948   -0.8944    0.8778 C   0  0  0  0  0
    0.6309    1.3129    0.1150 C   0  0  0  0  0
    0.2563    2.3441   -3.7294 C   0  0  0  0  0
   -0.9014    3.7028   -2.1301 C   0  0  0  0  0
    3.1572   -0.4591   -0.1658 C   0  0  0  0  0
    4.7503   -2.8362   -0.7028 C   0  0  0  0  0
    6.1331   -2.4080   -1.2188 C   0  0  0  0  0
    1.6315    3.5278   -5.4851 C   0  0  0  0  0
    3.0976   -2.8235    2.7654 C   0  0  0  0  0
    4.0179    2.3012   -4.3139 C   0  0  0  0  0
    1.5324    2.3264   -4.5605 C   0  0  0  0  0
   -3.3687    3.7544   -2.0946 N   0  0  0  0  0
   -1.2651    3.6226    1.4396 N   0  0  0  0  0
    3.2850    2.4697    2.5980 N   0  0  0  0  0
    3.3880   -3.1593    1.3490 N   0  0  0  0  0
    2.6963    2.3452   -3.6342 N   0  0  0  0  0
    3.5623   -0.8483   -1.4792 O   0  0  0  0  0
    0.2416    3.5679   -2.9836 O   0  0  0  0  0
    5.3858   -0.1267    0.6939 O   0  0  0  0  0
   -0.3867    0.8098    0.9824 O   0  0  0  0  0
    4.7090   -4.2633   -0.7877 O   0  0  0  0  0
   -0.9295    2.6963   -1.1210 O   0  0  0  0  0
    2.9937    0.9548   -0.0870 O   0  0  0  0  0
  1  2  1  0  0  0
  1  5  1  0  0  0
  2 13  1  0  0  0
  3  6  1  0  0  0
  3  7  1  0  0  0
  4 16  1  0  0  0
  4 27  1  0  0  0
  5 14  1  0  0  0
  5 22  1  0  0  0
  6  9  1  0  0  0
  6 23  1  0  0  0
  7 10  1  0  0  0
  7 24  1  0  0  0
  8 11  1  0  0  0
  8 16  1  0  0  0
  8 25  1  0  0  0
  9 12  1  0  0  0
  9 32  1  0  0  0
 10 12  1  0  0  0
 10 33  1  0  0  0
 11 15  1  0  0  0
 11 29  1  0  0  0
 12 30  1  0  0  0
 13 21  1  0  0  0
 13 28  1  0  0  0
 14 28  1  0  0  0
 14 32  1  0  0  0
 15 27  1  0  0  0
 15 33  1  0  0  0
 16 17  1  0  0  0
 16 31  1  0  0  0
 18 21  1  0  0  0
 19 25  1  0  0  0
 20 26  1  0  0  0
 21 26  1  0  0  0
M  CHG  5  22   1  23   1  24   1  25   1  26   1
M  END
> <rmsd>
0.502213418

$$$$
ZINC77319966


 35 37  0  0  0  0  0  0  0  0999 V2000
    0.6374    6.0339    2.3111 C   0  0  0  0  0
    0.9966    2.3565    2.0412 C   0  0  0  0  0
    6.4228    4.5504   -1.2407 C   0  0  0  0  0
    0.9267    3.7400    1.3849 C   0  0  0  0  0
    0.7191    1.2182    1.0540 C   0  0  0  0  0
    5.4389    3.7549   -0.3809 C   0  0  0  0  0
    4.5327   -2.3812    0.7479 C   0  0  0  0  0
    6.4362    6.0423   -0.8902 C   0  0  0  0  0
    1.8587    3.8368    0.1660 C   0  0  0  0  0
    1.5565    1.3205   -0.2286 C   0  0  0  0  0
    4.7116   -2.7729   -0.7252 C   0  0  0  0  0
    4.1794   -0.9008    0.9163 C   0  0  0  0  0
    1.5640    2.7273   -0.8548 C   0  0  0  0  0
    5.0082    6.5941   -0.7738 C   0  0  0  0  0
    3.6045   -2.1856   -1.6180 C   0  0  0  0  0
    4.0814    4.4553   -0.3030 C   0  0  0  0  0
    3.0984   -0.4533   -0.0717 C   0  0  0  0  0
    4.9782    8.0328   -0.2705 C   0  0  0  0  0
    3.8615   -2.4017   -3.1052 C   0  0  0  0  0
    1.0760    6.8340    3.3510 N   0  0  0  0  0
    1.2113    4.7731    2.3539 N   0  0  0  0  0
   -0.7286    1.2176    0.6981 N   0  0  0  0  0
    5.9946    3.6184    0.9993 N   0  0  0  0  0
    3.4480   -3.2113    1.3447 N   0  0  0  0  0
    3.5748    8.4943   -0.2290 N   0  0  0  0  0
   -0.1658    6.4222    1.4647 O   0  0  0  0  0
    4.2346    5.8049    0.1388 O   0  0  0  0  0
    3.4862   -0.7731   -1.4076 O   0  0  0  0  0
    7.1291    6.2385    0.3411 O   0  0  0  0  0
    5.9925   -2.2948   -1.1426 O   0  0  0  0  0
    5.3697   -0.1387    0.6891 O   0  0  0  0  0
    0.3045    2.9973   -1.4641 O   0  0  0  0  0
    2.7870   -1.8381   -3.8357 O   0  0  0  0  0
    3.2229    3.7243    0.5678 O   0  0  0  0  0
    2.9034    0.9510    0.0729 O   0  0  0  0  0
  1 20  1  0  0  0
  1 21  1  0  0  0
  2  4  1  0  0  0
  2  5  1  0  0  0
  3  6  1  0  0  0
  3  8  1  0  0  0
  4  9  1  0  0  0
  4 21  1  0  0  0
  5 10  1  0  0  0
  5 22  1  0  0  0
  6 16  1  0  0  0
  6 23  1  0  0  0
  7 11  1  0  0  0
  7 12  1  0  0  0
  7 24  1  0  0  0
  8 14  1  0  0  0
  8 29  1  0  0  0
  9 13  1  0  0  0
  9 34  1  0  0  0
 10 13  1  0  0  0
 10 35  1  0  0  0
 11 15  1  0  0  0
 11 30  1  0  0  0
 12 17  1  0  0  0
 12 31  1  0  0  0
 13 32  1  0  0  0
 14 18  1  0  0  0
 14 27  1  0  0  0
 15 19  1  0  0  0
 15 28  1  0  0  0
 16 27  1  0  0  0
 16 34  1  0  0  0
 17 28  1  0  0  0
 17 35  1  0  0  0
 18 25  1  0  0  0
 19 33  1  0  0  0
  1 26  2  0  0  0
M  CHG  4  22   1  23   1  24   1  25   1
M  END
> <rmsd>
0.493720442

$$$$
ZINC77319963


 35 37  0  0  0  0  0  0  0  0999 V2000
   -0.5746    5.5141    1.5117 C   0  0  0  0  0
    1.9250    3.8002    0.2081 C   0  0  0  0  0
    0.5629    0.0810    6.3821 C   0  0  0  0  0
    1.1306    3.6931    1.5176 C   0  0  0  0  0
    1.4857    2.7456   -0.8144 C   0  0  0  0  0
   -0.0174    1.0513    5.3515 C   0  0  0  0  0
    4.5294   -2.3769    0.7529 C   0  0  0  0  0
    2.0505    0.3311    6.6521 C   0  0  0  0  0
    1.1601    2.2543    2.0609 C   0  0  0  0  0
    1.5533    1.3144   -0.2593 C   0  0  0  0  0
    4.7192   -2.7748   -0.7172 C   0  0  0  0  0
    4.1712   -0.8966    0.9123 C   0  0  0  0  0
    0.7275    1.1981    1.0302 C   0  0  0  0  0
    2.8283    0.5007    5.3392 C   0  0  0  0  0
    3.6168   -2.1944   -1.6201 C   0  0  0  0  0
    0.8935    1.1681    4.1285 C   0  0  0  0  0
    3.0959   -0.4564   -0.0849 C   0  0  0  0  0
    4.2788    0.9093    5.5692 C   0  0  0  0  0
    3.8842   -2.4164   -3.1046 C   0  0  0  0  0
   -1.9251    5.7191    1.2928 N   0  0  0  0  0
   -0.2197    4.1826    1.3477 N   0  0  0  0  0
    2.3523    2.8614   -2.0195 N   0  0  0  0  0
   -0.1644    2.3998    5.9778 N   0  0  0  0  0
    3.4426   -3.2071    1.3461 N   0  0  0  0  0
    4.9595    1.0086    4.2611 N   0  0  0  0  0
    0.1969    6.4226    1.8148 O   0  0  0  0  0
    2.2235    1.5100    4.5207 O   0  0  0  0  0
    3.4935   -0.7811   -1.4169 O   0  0  0  0  0
    2.2013    1.5010    7.4544 O   0  0  0  0  0
    6.0017   -2.2953   -1.1280 O   0  0  0  0  0
    5.3611   -0.1328    0.6897 O   0  0  0  0  0
   -0.6568    1.3555    0.7276 O   0  0  0  0  0
    2.8133   -1.8587   -3.8448 O   0  0  0  0  0
    0.3575    2.1372    3.2323 O   0  0  0  0  0
    2.8965    0.9481    0.0520 O   0  0  0  0  0
  1 20  1  0  0  0
  1 21  1  0  0  0
  2  4  1  0  0  0
  2  5  1  0  0  0
  3  6  1  0  0  0
  3  8  1  0  0  0
  4  9  1  0  0  0
  4 21  1  0  0  0
  5 10  1  0  0  0
  5 22  1  0  0  0
  6 16  1  0  0  0
  6 23  1  0  0  0
  7 11  1  0  0  0
  7 12  1  0  0  0
  7 24  1  0  0  0
  8 14  1  0  0  0
  8 29  1  0  0  0
  9 13  1  0  0  0
  9 34  1  0  0  0
 10 13  1  0  0  0
 10 35  1  0  0  0
 11 15  1  0  0  0
 11 30  1  0  0  0
 12 17  1  0  0  0
 12 31  1  0  0  0
 13 32  1  0  0  0
 14 18  1  0  0  0
 14 27  1  0  0  0
 15 19  1  0  0  0
 15 28  1  0  0  0
 16 27  1  0  0  0
 16 34  1  0  0  0
 17 28  1  0  0  0
 17 35  1  0  0  0
 18 25  1  0  0  0
 19 33  1  0  0  0
  1 26  2  0  0  0
M  CHG  4  22   1  23   1  24   1  25   1
M  END
> <rmsd>
0.516207755

$$$$
ZINC77319966


 35 37  0  0  0  0  0  0  0  0999 V2000
    0.2399    5.3491    3.1573 C   0  0  0  0  0
    0.9962    2.3566    2.0406 C   0  0  0  0  0
    6.2423    5.9667    0.3535 C   0  0  0  0  0
    0.9264    3.7402    1.3844 C   0  0  0  0  0
    0.7187    1.2184    1.0534 C   0  0  0  0  0
    5.4237    4.7056    0.6355 C   0  0  0  0  0
    4.5323   -2.3812    0.7477 C   0  0  0  0  0
    5.5422    7.2418    0.8357 C   0  0  0  0  0
    1.8586    3.8369    0.1656 C   0  0  0  0  0
    1.5564    1.3206   -0.2291 C   0  0  0  0  0
    4.7114   -2.7729   -0.7254 C   0  0  0  0  0
    4.1790   -0.9008    0.9161 C   0  0  0  0  0
    1.5640    2.7275   -0.8552 C   0  0  0  0  0
    4.0682    7.2573    0.4063 C   0  0  0  0  0
    3.6044   -2.1855   -1.6183 C   0  0  0  0  0
    3.9642    4.8892    0.2165 C   0  0  0  0  0
    3.0981   -0.4532   -0.0720 C   0  0  0  0  0
    3.2995    8.4309    1.0028 C   0  0  0  0  0
    3.8616   -2.4015   -3.1056 C   0  0  0  0  0
    0.7719    6.3113    3.9970 N   0  0  0  0  0
    1.2110    4.7731    2.3535 N   0  0  0  0  0
   -0.7289    1.2178    0.6973 N   0  0  0  0  0
    5.4748    4.4061    2.0983 N   0  0  0  0  0
    3.4474   -3.2113    1.3443 N   0  0  0  0  0
    1.9079    8.3911    0.5063 N   0  0  0  0  0
   -0.9557    5.0609    3.1472 O   0  0  0  0  0
    3.4078    6.0559    0.8241 O   0  0  0  0  0
    3.4862   -0.7730   -1.4079 O   0  0  0  0  0
    5.6297    7.3277    2.2568 O   0  0  0  0  0
    5.9924   -2.2947   -1.1426 O   0  0  0  0  0
    5.3693   -0.1388    0.6891 O   0  0  0  0  0
    0.3047    2.9976   -1.4647 O   0  0  0  0  0
    3.9471   -3.7936   -3.3516 O   0  0  0  0  0
    3.2227    3.7243    0.5676 O   0  0  0  0  0
    2.9032    0.9511    0.0726 O   0  0  0  0  0
  1 20  1  0  0  0
  1 21  1  0  0  0
  2  4  1  0  0  0
  2  5  1  0  0  0
  3  6  1  0  0  0
  3  8  1  0  0  0
  4  9  1  0  0  0
  4 21  1  0  0  0
  5 10  1  0  0  0
  5 22  1  0  0  0
  6 16  1  0  0  0
  6 23  1  0  0  0
  7 11  1  0  0  0
  7 12  1  0  0  0
  7 24  1  0  0  0
  8 14  1  0  0  0
  8 29  1  0  0  0
  9 13  1  0  0  0
  9 34  1  0  0  0
 10 13  1  0  0  0
 10 35  1  0  0  0
 11 15  1  0  0  0
 11 30  1  0  0  0
 12 17  1  0  0  0
 12 31  1  0  0  0
 13 32  1  0  0  0
 14 18  1  0  0  0
 14 27  1  0  0  0
 15 19  1  0  0  0
 15 28  1  0  0  0
 16 27  1  0  0  0
 16 34  1  0  0  0
 17 28  1  0  0  0
 17 35  1  0  0  0
 18 25  1  0  0  0
 19 33  1  0  0  0
  1 26  2  0  0  0
M  CHG  4  22   1  23   1  24   1  25   1
M  END
> <rmsd>
0.494080901

$$$$
ZINC77319963


 35 37  0  0  0  0  0  0  0  0999 V2000
   -2.0206    5.2690    1.1521 C   0  0  0  0  0
   -0.5252    2.2107   -0.3243 C   0  0  0  0  0
   -1.5149    1.9916    6.1446 C   0  0  0  0  0
   -0.4170    3.4470    0.5830 C   0  0  0  0  0
    0.8424    1.6325   -0.6992 C   0  0  0  0  0
   -1.1113    1.5002    4.7533 C   0  0  0  0  0
    4.5048   -2.3811    0.7407 C   0  0  0  0  0
   -2.2720    3.3232    6.1006 C   0  0  0  0  0
    0.4353    3.1600    1.8277 C   0  0  0  0  0
    1.7411    1.4171    0.5264 C   0  0  0  0  0
    4.6334   -2.7726   -0.7378 C   0  0  0  0  0
    4.2395   -0.8841    0.9241 C   0  0  0  0  0
    1.8278    2.6608    1.4211 C   0  0  0  0  0
   -1.5629    4.3305    5.1842 C   0  0  0  0  0
    3.5451   -2.1174   -1.6060 C   0  0  0  0  0
   -0.4779    2.6246    3.9323 C   0  0  0  0  0
    3.1674   -0.3695   -0.0406 C   0  0  0  0  0
   -2.3693    5.6095    4.9890 C   0  0  0  0  0
    3.7614   -2.3378   -3.0991 C   0  0  0  0  0
   -3.3502    5.4643    1.4806 N   0  0  0  0  0
   -1.7313    3.9286    0.9388 N   0  0  0  0  0
    1.5128    2.5665   -1.6557 N   0  0  0  0  0
   -2.3254    1.0022    4.0391 N   0  0  0  0  0
    3.3858   -3.1522    1.3534 N   0  0  0  0  0
   -1.4538    6.6910    4.5689 N   0  0  0  0  0
   -1.2126    6.1922    1.0668 O   0  0  0  0  0
   -1.3393    3.7631    3.8873 O   0  0  0  0  0
    3.5114   -0.7018   -1.3855 O   0  0  0  0  0
   -3.6018    3.1026    5.6341 O   0  0  0  0  0
    5.9315   -2.3652   -1.1767 O   0  0  0  0  0
    5.4667   -0.1896    0.6784 O   0  0  0  0  0
    2.5626    2.3489    2.6050 O   0  0  0  0  0
    3.7629   -3.7308   -3.3543 O   0  0  0  0  0
   -0.1899    2.1466    2.6214 O   0  0  0  0  0
    3.0554    1.0427    0.1154 O   0  0  0  0  0
  1 20  1  0  0  0
  1 21  1  0  0  0
  2  4  1  0  0  0
  2  5  1  0  0  0
  3  6  1  0  0  0
  3  8  1  0  0  0
  4  9  1  0  0  0
  4 21  1  0  0  0
  5 10  1  0  0  0
  5 22  1  0  0  0
  6 16  1  0  0  0
  6 23  1  0  0  0
  7 11  1  0  0  0
  7 12  1  0  0  0
  7 24  1  0  0  0
  8 14  1  0  0  0
  8 29  1  0  0  0
  9 13  1  0  0  0
  9 34  1  0  0  0
 10 13  1  0  0  0
 10 35  1  0  0  0
 11 15  1  0  0  0
 11 30  1  0  0  0
 12 17  1  0  0  0
 12 31  1  0  0  0
 13 32  1  0  0  0
 14 18  1  0  0  0
 14 27  1  0  0  0
 15 19  1  0  0  0
 15 28  1  0  0  0
 16 27  1  0  0  0
 16 34  1  0  0  0
 17 28  1  0  0  0
 17 35  1  0  0  0
 18 25  1  0  0  0
 19 33  1  0  0  0
  1 26  2  0  0  0
M  CHG  4  22   1  23   1  24   1  25   1
M  END
> <rmsd>
0.326300621

$$$$
ZINC77319963


 35 37  0  0  0  0  0  0  0  0999 V2000
   -0.9369    4.8083    2.3575 C   0  0  0  0  0
    1.9249    3.8000    0.2082 C   0  0  0  0  0
    0.2849   -0.4873    5.9342 C   0  0  0  0  0
    1.1305    3.6927    1.5177 C   0  0  0  0  0
    1.4856    2.7455   -0.8144 C   0  0  0  0  0
   -0.2492    0.5035    4.8984 C   0  0  0  0  0
    4.5294   -2.3771    0.7525 C   0  0  0  0  0
    1.4309    0.0954    6.7684 C   0  0  0  0  0
    1.1600    2.2539    2.0609 C   0  0  0  0  0
    1.5532    1.3143   -0.2594 C   0  0  0  0  0
    4.7193   -2.7748   -0.7177 C   0  0  0  0  0
    4.1712   -0.8968    0.9120 C   0  0  0  0  0
    0.7275    1.1977    1.0301 C   0  0  0  0  0
    2.4649    0.7930    5.8732 C   0  0  0  0  0
    3.6169   -2.1943   -1.6205 C   0  0  0  0  0
    0.8934    1.1675    4.1284 C   0  0  0  0  0
    3.0959   -0.4565   -0.0852 C   0  0  0  0  0
    3.5353    1.5221    6.6775 C   0  0  0  0  0
    3.8843   -2.4162   -3.1050 C   0  0  0  0  0
   -2.2019    5.1798    1.9383 N   0  0  0  0  0
   -0.2198    4.1823    1.3478 N   0  0  0  0  0
    2.3522    2.8614   -2.0195 N   0  0  0  0  0
   -1.0430    1.5598    5.5957 N   0  0  0  0  0
    3.4427   -3.2073    1.3456 N   0  0  0  0  0
    4.5064    2.1262    5.7415 N   0  0  0  0  0
   -0.5233    5.0200    3.4961 O   0  0  0  0  0
    1.8302    1.7611    5.0283 O   0  0  0  0  0
    3.4936   -0.7811   -1.4171 O   0  0  0  0  0
    0.9088    1.0263    7.7148 O   0  0  0  0  0
    6.0018   -2.2953   -1.1284 O   0  0  0  0  0
    5.3611   -0.1329    0.6895 O   0  0  0  0  0
   -0.6569    1.3551    0.7275 O   0  0  0  0  0
    3.9751   -3.8091   -3.3443 O   0  0  0  0  0
    0.3573    2.1367    3.2323 O   0  0  0  0  0
    2.8964    0.9480    0.0519 O   0  0  0  0  0
  1 20  1  0  0  0
  1 21  1  0  0  0
  2  4  1  0  0  0
  2  5  1  0  0  0
  3  6  1  0  0  0
  3  8  1  0  0  0
  4  9  1  0  0  0
  4 21  1  0  0  0
  5 10  1  0  0  0
  5 22  1  0  0  0
  6 16  1  0  0  0
  6 23  1  0  0  0
  7 11  1  0  0  0
  7 12  1  0  0  0
  7 24  1  0  0  0
  8 14  1  0  0  0
  8 29  1  0  0  0
  9 13  1  0  0  0
  9 34  1  0  0  0
 10 13  1  0  0  0
 10 35  1  0  0  0
 11 15  1  0  0  0
 11 30  1  0  0  0
 12 17  1  0  0  0
 12 31  1  0  0  0
 13 32  1  0  0  0
 14 18  1  0  0  0
 14 27  1  0  0  0
 15 19  1  0  0  0
 15 28  1  0  0  0
 16 27  1  0  0  0
 16 34  1  0  0  0
 17 28  1  0  0  0
 17 35  1  0  0  0
 18 25  1  0  0  0
 19 33  1  0  0  0
  1 26  2  0  0  0
M  CHG  4  22   1  23   1  24   1  25   1
M  END
> <rmsd>
0.516348839

$$$$
ZINC79669709


 37 40  0  0  0  0  0  0  0  0999 V2000
    8.3752   -7.9856    2.3011 C   0  0  0  0  0
   10.1948   -4.8456    2.9264 C   0  0  0  0  0
    9.3803   -8.8292    2.5609 C   0  0  0  0  0
    9.6878   -6.0556    3.2419 C   0  0  0  0  0
   10.5419   -8.3734    3.3687 C   0  0  0  0  0
    6.2038   -5.8146    1.3444 C   0  0  0  0  0
    1.5879   -0.2959    0.4318 C   0  0  0  0  0
    1.5910    1.0387    0.3010 C   0  0  0  0  0
    2.7877   -1.1031    0.0522 C   0  0  0  0  0
    9.4832   -3.7975    2.1241 C   0  0  0  0  0
    5.3529   -4.6991    0.7332 C   0  0  0  0  0
    7.1426   -1.6042    1.9789 C   0  0  0  0  0
    8.3189   -6.5183    2.6963 C   0  0  0  0  0
    7.9827   -4.0976    2.0368 C   0  0  0  0  0
    4.9479   -2.1114    0.9149 C   0  0  0  0  0
    5.7779   -0.9794    1.5829 C   0  0  0  0  0
   10.4207   -7.0553    4.1485 C   0  0  0  0  0
    7.7354   -5.5769    1.5452 C   0  0  0  0  0
    5.6133   -3.3898    1.4776 C   0  0  0  0  0
    7.1322   -3.0091    1.3248 C   0  0  0  0  0
    9.7156   -7.3493    5.4924 C   0  0  0  0  0
   11.8367   -6.5501    4.4892 C   0  0  0  0  0
    8.4184   -5.9266    0.2016 C   0  0  0  0  0
    5.1262   -3.6049    2.9525 C   0  0  0  0  0
    7.5977   -2.7778   -0.1480 C   0  0  0  0  0
    0.0415    2.7474   -0.6221 C   0  0  0  0  0
   -0.7716    1.3312    1.2828 C   0  0  0  0  0
    3.1537   -1.3808    2.5352 C   0  0  0  0  0
    0.4576    1.9833    0.6395 C   0  0  0  0  0
    3.4492   -1.9493    1.1494 C   0  0  0  0  0
   11.5359   -9.0966    3.4388 O   0  0  0  0  0
    5.6654   -6.8934    1.6029 O   0  0  0  0  0
    3.2244   -1.0845   -1.0984 O   0  0  0  0  0
    9.3560  -10.1316    2.1115 O   0  0  0  0  0
    5.9716    0.0983    0.6784 O   0  0  0  0  0
    0.9824    2.9313    1.5766 O   0  0  0  0  0
    2.8486   -3.2439    1.0990 O   0  0  0  0  0
  3  5  1  0  0  0
  3 34  1  0  0  0
  7  9  1  0  0  0
 10  2  1  0  0  0
 10 14  1  0  0  0
 11  6  1  0  0  0
 11 19  1  0  0  0
 12 16  1  0  0  0
 12 20  1  0  0  0
 13  1  1  0  0  0
 13  4  1  0  0  0
 13 18  1  0  0  0
 14 18  1  0  0  0
 14 20  1  0  0  0
 15 16  1  0  0  0
 15 19  1  0  0  0
 15 30  1  0  0  0
 16 35  1  0  0  0
 17  4  1  0  0  0
 17  5  1  0  0  0
 17 21  1  0  0  0
 17 22  1  0  0  0
 18  6  1  0  0  0
 18 23  1  0  0  0
 19 20  1  0  0  0
 19 24  1  0  0  0
 20 25  1  0  0  0
 26 29  1  0  0  0
 27 29  1  0  0  0
 28 30  1  0  0  0
 29  8  1  0  0  0
 29 36  1  0  0  0
 30  9  1  0  0  0
 30 37  1  0  0  0
  1  3  2  0  0  0
  2  4  2  0  0  0
  5 31  2  0  0  0
  6 32  2  0  0  0
  7  8  2  0  0  0
  9 33  2  0  0  0
M  END
> <rmsd>
0.487775683

$$$$
ZINC76945329


 37 40  0  0  0  0  0  0  0  0999 V2000
    9.8138   -4.9700    3.4382 C   0  0  0  0  0
    9.9885   -6.0275    2.6058 C   0  0  0  0  0
    6.5645   -5.5992    0.5961 C   0  0  0  0  0
   10.9791   -8.3281    2.3413 C   0  0  0  0  0
    1.5412   -0.3103    0.4198 C   0  0  0  0  0
    1.5296    1.0245    0.2922 C   0  0  0  0  0
    2.7558   -1.1018    0.0541 C   0  0  0  0  0
    8.7003   -3.9477    3.3283 C   0  0  0  0  0
    5.3462   -4.6532    0.6713 C   0  0  0  0  0
    8.7203   -7.9255    1.4903 C   0  0  0  0  0
    7.0851   -1.5867    2.0745 C   0  0  0  0  0
    8.9071   -6.3943    1.5441 C   0  0  0  0  0
   10.0271   -8.6427    1.2028 C   0  0  0  0  0
    8.0335   -4.1006    1.9644 C   0  0  0  0  0
    4.9186   -2.0845    0.9390 C   0  0  0  0  0
    5.7455   -0.9473    1.6084 C   0  0  0  0  0
   11.2991   -6.8403    2.5850 C   0  0  0  0  0
    7.5534   -5.5942    1.7754 C   0  0  0  0  0
    5.5893   -3.3725    1.5015 C   0  0  0  0  0
    7.0936   -2.9788    1.4096 C   0  0  0  0  0
   12.0002   -6.7172    3.9515 C   0  0  0  0  0
   12.3124   -6.3855    1.5090 C   0  0  0  0  0
    6.7869   -6.2714    2.9434 C   0  0  0  0  0
    5.0915   -3.5377    2.9707 C   0  0  0  0  0
    7.5836   -2.7268   -0.0753 C   0  0  0  0  0
   -0.0287    2.7164   -0.6471 C   0  0  0  0  0
   -0.8490    1.2856    1.2437 C   0  0  0  0  0
    3.0962   -1.3821    2.5404 C   0  0  0  0  0
    0.3804    1.9543    0.6181 C   0  0  0  0  0
    3.4135   -1.9424    1.1567 C   0  0  0  0  0
    6.6913   -6.3617   -0.3629 O   0  0  0  0  0
   11.4950   -9.2319    3.0008 O   0  0  0  0  0
    3.2064   -1.0760   -1.0911 O   0  0  0  0  0
    9.7791  -10.0360    1.1485 O   0  0  0  0  0
    5.9974    0.0973    0.6789 O   0  0  0  0  0
    0.8813    2.9064    1.5642 O   0  0  0  0  0
    2.8323   -3.2447    1.0954 O   0  0  0  0  0
  5  7  1  0  0  0
  8  1  1  0  0  0
  8 14  1  0  0  0
  9  3  1  0  0  0
  9 19  1  0  0  0
 10 12  1  0  0  0
 10 13  1  0  0  0
 11 16  1  0  0  0
 11 20  1  0  0  0
 12  2  1  0  0  0
 12 18  1  0  0  0
 13  4  1  0  0  0
 13 34  1  0  0  0
 14 18  1  0  0  0
 14 20  1  0  0  0
 15 16  1  0  0  0
 15 19  1  0  0  0
 15 30  1  0  0  0
 16 35  1  0  0  0
 17  2  1  0  0  0
 17  4  1  0  0  0
 17 21  1  0  0  0
 17 22  1  0  0  0
 18  3  1  0  0  0
 18 23  1  0  0  0
 19 20  1  0  0  0
 19 24  1  0  0  0
 20 25  1  0  0  0
 26 29  1  0  0  0
 27 29  1  0  0  0
 28 30  1  0  0  0
 29  6  1  0  0  0
 29 36  1  0  0  0
 30  7  1  0  0  0
 30 37  1  0  0  0
  1  2  2  0  0  0
  3 31  2  0  0  0
  4 32  2  0  0  0
  5  6  2  0  0  0
  7 33  2  0  0  0
M  END
> <rmsd>
0.518166006

$$$$
ZINC33830395


 37 40  0  0  0  0  0  0  0  0999 V2000
   10.3047   -4.3204    1.1059 C   0  0  0  0  0
    9.9109   -5.2586    0.2249 C   0  0  0  0  0
    6.2048   -5.7981    1.2942 C   0  0  0  0  0
   10.7696   -7.1730   -1.1279 C   0  0  0  0  0
    1.5742   -0.2997    0.4274 C   0  0  0  0  0
    1.5727    1.0349    0.2977 C   0  0  0  0  0
    2.7792   -1.1017    0.0530 C   0  0  0  0  0
    9.4777   -3.7795    2.2251 C   0  0  0  0  0
    5.3766   -4.6659    0.6951 C   0  0  0  0  0
    8.7461   -7.4798    0.2468 C   0  0  0  0  0
    7.1104   -1.5862    2.0288 C   0  0  0  0  0
    8.5499   -5.9497    0.3712 C   0  0  0  0  0
    9.4247   -7.8708   -1.0566 C   0  0  0  0  0
    7.9701   -4.0744    2.1310 C   0  0  0  0  0
    4.9402   -2.1017    0.9236 C   0  0  0  0  0
    5.7581   -0.9665    1.5950 C   0  0  0  0  0
   10.7573   -5.6371   -1.0081 C   0  0  0  0  0
    7.7055   -5.5533    1.6492 C   0  0  0  0  0
    5.6090   -3.3810    1.4839 C   0  0  0  0  0
    7.1291   -2.9943    1.3809 C   0  0  0  0  0
   10.1335   -5.0442   -2.2860 C   0  0  0  0  0
   12.2246   -5.1512   -0.9513 C   0  0  0  0  0
    8.0408   -6.4701    2.8616 C   0  0  0  0  0
    5.0873   -3.6275    2.9391 C   0  0  0  0  0
    7.6465   -2.7723   -0.0734 C   0  0  0  0  0
    0.0197    2.7387   -0.6293 C   0  0  0  0  0
   -0.7942    1.3179    1.2715 C   0  0  0  0  0
    3.1361   -1.3803    2.5368 C   0  0  0  0  0
    0.4346    1.9750    0.6329 C   0  0  0  0  0
    3.4391   -1.9461    1.1520 C   0  0  0  0  0
    5.6898   -6.9148    1.4094 O   0  0  0  0  0
   11.8053   -7.8136   -1.3136 O   0  0  0  0  0
    3.2201   -1.0819   -1.0960 O   0  0  0  0  0
    9.6045   -9.2756   -1.0711 O   0  0  0  0  0
    5.9777    0.0962    0.6780 O   0  0  0  0  0
    0.9528    2.9242    1.5726 O   0  0  0  0  0
    2.8449   -3.2433    1.0976 O   0  0  0  0  0
  5  7  1  0  0  0
  8  1  1  0  0  0
  8 14  1  0  0  0
  9  3  1  0  0  0
  9 19  1  0  0  0
 10 12  1  0  0  0
 10 13  1  0  0  0
 11 16  1  0  0  0
 11 20  1  0  0  0
 12  2  1  0  0  0
 12 18  1  0  0  0
 13  4  1  0  0  0
 13 34  1  0  0  0
 14 18  1  0  0  0
 14 20  1  0  0  0
 15 16  1  0  0  0
 15 19  1  0  0  0
 15 30  1  0  0  0
 16 35  1  0  0  0
 17  2  1  0  0  0
 17  4  1  0  0  0
 17 21  1  0  0  0
 17 22  1  0  0  0
 18  3  1  0  0  0
 18 23  1  0  0  0
 19 20  1  0  0  0
 19 24  1  0  0  0
 20 25  1  0  0  0
 26 29  1  0  0  0
 27 29  1  0  0  0
 28 30  1  0  0  0
 29  6  1  0  0  0
 29 36  1  0  0  0
 30  7  1  0  0  0
 30 37  1  0  0  0
  1  2  2  0  0  0
  3 31  2  0  0  0
  4 32  2  0  0  0
  5  6  2  0  0  0
  7 33  2  0  0  0
M  END
> <rmsd>
0.495833516

$$$$
ZINC77270907


 40 42  0  0  0  0  0  0  0  0999 V2000
   -1.6005    0.4057    1.4838 C   0  0  0  0  0
    0.9986    2.3446    2.0449 C   0  0  0  0  0
    0.7095    1.2115    1.0492 C   0  0  0  0  0
    5.4439    3.7518   -0.3776 C   0  0  0  0  0
    0.9198    3.7199    1.3801 C   0  0  0  0  0
    4.5321   -2.3804    0.7478 C   0  0  0  0  0
    1.5589    1.3213   -0.2298 C   0  0  0  0  0
    6.4157    4.5499   -1.2590 C   0  0  0  0  0
    1.8584    3.8380    0.1735 C   0  0  0  0  0
    4.7112   -2.7724   -0.7253 C   0  0  0  0  0
    4.1797   -0.8997    0.9161 C   0  0  0  0  0
    1.5621    2.7301   -0.8504 C   0  0  0  0  0
    6.4268    6.0421   -0.8981 C   0  0  0  0  0
    3.6046   -2.1844   -1.6183 C   0  0  0  0  0
    4.9994    6.5967   -0.7645 C   0  0  0  0  0
    4.0807    4.4555   -0.2998 C   0  0  0  0  0
    3.0992   -0.4517   -0.0722 C   0  0  0  0  0
    4.9772    8.0312   -0.2485 C   0  0  0  0  0
    3.8618   -2.4006   -3.1056 C   0  0  0  0  0
   -3.5398    1.9616    0.9523 C   0  0  0  0  0
   -3.5635    2.5928    2.3416 C   0  0  0  0  0
   -3.0259    0.5179    0.9543 C   0  0  0  0  0
    6.0008    3.5391    0.9419 N   0  0  0  0  0
   -0.6990    1.1396    0.7330 N   0  0  0  0  0
    1.2617    4.7582    2.3907 N   0  0  0  0  0
    3.4466   -3.2097    1.3444 N   0  0  0  0  0
    3.5752    8.4955   -0.1911 N   0  0  0  0  0
   -4.0259    3.9981    2.2252 N   0  0  0  0  0
   -1.3204   -0.2548    2.4819 O   0  0  0  0  0
    3.4872   -0.7717   -1.4081 O   0  0  0  0  0
    4.2364    5.8012    0.1510 O   0  0  0  0  0
    6.0056    4.3968   -2.6184 O   0  0  0  0  0
    5.9924   -2.2949   -1.1423 O   0  0  0  0  0
    5.3705   -0.1385    0.6891 O   0  0  0  0  0
    0.2934    2.9664   -1.4558 O   0  0  0  0  0
    7.1245    6.2261    0.3323 O   0  0  0  0  0
    2.7879   -1.8363   -3.8363 O   0  0  0  0  0
   -3.8889   -0.2836    1.7439 O   0  0  0  0  0
    2.9051    0.9529    0.0722 O   0  0  0  0  0
    3.2232    3.7218    0.5705 O   0  0  0  0  0
  1 24  1  0  0  0
  2  3  1  0  0  0
  2  5  1  0  0  0
  3  7  1  0  0  0
  3 24  1  0  0  0
  4  8  1  0  0  0
  4 16  1  0  0  0
  4 23  1  0  0  0
  5  9  1  0  0  0
  5 25  1  0  0  0
  6 10  1  0  0  0
  6 11  1  0  0  0
  6 26  1  0  0  0
  7 12  1  0  0  0
  7 39  1  0  0  0
  8 13  1  0  0  0
  8 32  1  0  0  0
  9 12  1  0  0  0
  9 40  1  0  0  0
 10 14  1  0  0  0
 10 33  1  0  0  0
 11 17  1  0  0  0
 11 34  1  0  0  0
 12 35  1  0  0  0
 13 15  1  0  0  0
 13 36  1  0  0  0
 14 19  1  0  0  0
 14 30  1  0  0  0
 15 18  1  0  0  0
 15 31  1  0  0  0
 16 31  1  0  0  0
 16 40  1  0  0  0
 17 30  1  0  0  0
 17 39  1  0  0  0
 18 27  1  0  0  0
 19 37  1  0  0  0
 20 21  1  0  0  0
 20 22  1  0  0  0
 21 28  1  0  0  0
 22  1  1  0  0  0
 22 38  1  0  0  0
  1 29  2  0  0  0
M  CHG  4  25   1  26   1  27   1  28   1
M  END
> <rmsd>
0.492734194

$$$$
ZINC77270907


 40 42  0  0  0  0  0  0  0  0999 V2000
   -1.3442   -0.0510    0.4462 C   0  0  0  0  0
    0.9985    2.3441    2.0453 C   0  0  0  0  0
    0.7094    1.2111    1.0497 C   0  0  0  0  0
    5.4438    3.7513   -0.3771 C   0  0  0  0  0
    0.9197    3.7195    1.3806 C   0  0  0  0  0
    4.5320   -2.3809    0.7483 C   0  0  0  0  0
    1.5588    1.3208   -0.2293 C   0  0  0  0  0
    6.4156    4.5494   -1.2586 C   0  0  0  0  0
    1.8583    3.8375    0.1739 C   0  0  0  0  0
    4.7111   -2.7729   -0.7248 C   0  0  0  0  0
    4.1796   -0.9002    0.9166 C   0  0  0  0  0
    1.5620    2.7296   -0.8500 C   0  0  0  0  0
    6.4267    6.0416   -0.8977 C   0  0  0  0  0
    3.6045   -2.1849   -1.6179 C   0  0  0  0  0
    4.9993    6.5963   -0.7641 C   0  0  0  0  0
    4.0806    4.4550   -0.2994 C   0  0  0  0  0
    3.0991   -0.4522   -0.0718 C   0  0  0  0  0
    4.9771    8.0308   -0.2481 C   0  0  0  0  0
    3.8617   -2.4010   -3.1052 C   0  0  0  0  0
   -3.5713    0.7599    1.3664 C   0  0  0  0  0
   -3.4906   -0.0937    2.6288 C   0  0  0  0  0
   -2.8316    0.1445    0.1736 C   0  0  0  0  0
    6.0007    3.5386    0.9424 N   0  0  0  0  0
   -0.6991    1.1391    0.7334 N   0  0  0  0  0
    1.2616    4.7577    2.3912 N   0  0  0  0  0
    3.4465   -3.2102    1.3448 N   0  0  0  0  0
    3.5751    8.4950   -0.1906 N   0  0  0  0  0
   -4.1910    0.6096    3.7321 N   0  0  0  0  0
   -0.8125   -1.1591    0.4260 O   0  0  0  0  0
    3.4871   -0.7722   -1.4076 O   0  0  0  0  0
    4.2363    5.8007    0.1514 O   0  0  0  0  0
    6.0055    4.3963   -2.6179 O   0  0  0  0  0
    5.9923   -2.2954   -1.1419 O   0  0  0  0  0
    5.3704   -0.1390    0.6895 O   0  0  0  0  0
    0.2933    2.9660   -1.4553 O   0  0  0  0  0
    7.1244    6.2256    0.3327 O   0  0  0  0  0
    2.7878   -1.8368   -3.8359 O   0  0  0  0  0
   -3.4221   -1.1039   -0.1482 O   0  0  0  0  0
    2.9050    0.9524    0.0727 O   0  0  0  0  0
    3.2231    3.7213    0.5710 O   0  0  0  0  0
  1 24  1  0  0  0
  2  3  1  0  0  0
  2  5  1  0  0  0
  3  7  1  0  0  0
  3 24  1  0  0  0
  4  8  1  0  0  0
  4 16  1  0  0  0
  4 23  1  0  0  0
  5  9  1  0  0  0
  5 25  1  0  0  0
  6 10  1  0  0  0
  6 11  1  0  0  0
  6 26  1  0  0  0
  7 12  1  0  0  0
  7 39  1  0  0  0
  8 13  1  0  0  0
  8 32  1  0  0  0
  9 12  1  0  0  0
  9 40  1  0  0  0
 10 14  1  0  0  0
 10 33  1  0  0  0
 11 17  1  0  0  0
 11 34  1  0  0  0
 12 35  1  0  0  0
 13 15  1  0  0  0
 13 36  1  0  0  0
 14 19  1  0  0  0
 14 30  1  0  0  0
 15 18  1  0  0  0
 15 31  1  0  0  0
 16 31  1  0  0  0
 16 40  1  0  0  0
 17 30  1  0  0  0
 17 39  1  0  0  0
 18 27  1  0  0  0
 19 37  1  0  0  0
 20 21  1  0  0  0
 20 22  1  0  0  0
 21 28  1  0  0  0
 22  1  1  0  0  0
 22 38  1  0  0  0
  1 29  2  0  0  0
M  CHG  4  25   1  26   1  27   1  28   1
M  END
> <rmsd>
0.492734224

$$$$
ZINC77270907


 40 42  0  0  0  0  0  0  0  0999 V2000
   -1.6007    0.4047    1.4844 C   0  0  0  0  0
    0.9984    2.3438    2.0452 C   0  0  0  0  0
    0.7092    1.2107    1.0496 C   0  0  0  0  0
    5.4298    4.6983    0.6449 C   0  0  0  0  0
    0.9194    3.7191    1.3806 C   0  0  0  0  0
    4.5320   -2.3810    0.7478 C   0  0  0  0  0
    1.5586    1.3206   -0.2295 C   0  0  0  0  0
    6.2479    5.9620    0.3412 C   0  0  0  0  0
    1.8580    3.8373    0.1739 C   0  0  0  0  0
    4.7109   -2.7729   -0.7253 C   0  0  0  0  0
    4.1795   -0.9003    0.9161 C   0  0  0  0  0
    1.5616    2.7294   -0.8501 C   0  0  0  0  0
    5.5442    7.2348    0.8326 C   0  0  0  0  0
    3.6043   -2.1850   -1.6183 C   0  0  0  0  0
    4.0642    7.2526    0.4176 C   0  0  0  0  0
    3.9651    4.8869    0.2224 C   0  0  0  0  0
    3.0990   -0.4524   -0.0721 C   0  0  0  0  0
    3.3012    8.4226    1.0287 C   0  0  0  0  0
    3.8613   -2.4011   -3.1056 C   0  0  0  0  0
   -3.5401    1.9606    0.9531 C   0  0  0  0  0
   -3.5637    2.5917    2.3424 C   0  0  0  0  0
   -3.0261    0.5169    0.9549 C   0  0  0  0  0
    5.5306    4.3432    2.0450 N   0  0  0  0  0
   -0.6993    1.1387    0.7335 N   0  0  0  0  0
    1.2614    4.7574    2.3912 N   0  0  0  0  0
    3.4466   -3.2104    1.3444 N   0  0  0  0  0
    1.9049    8.3853    0.5458 N   0  0  0  0  0
   -4.0262    3.9970    2.2260 N   0  0  0  0  0
   -1.3205   -0.2557    2.4824 O   0  0  0  0  0
    3.4869   -0.7723   -1.4080 O   0  0  0  0  0
    3.4111    6.0489    0.8393 O   0  0  0  0  0
    6.4301    6.0401   -1.0730 O   0  0  0  0  0
    5.9921   -2.2954   -1.1425 O   0  0  0  0  0
    5.3703   -0.1391    0.6890 O   0  0  0  0  0
    0.2929    2.9657   -1.4553 O   0  0  0  0  0
    5.6394    7.3095    2.2538 O   0  0  0  0  0
    3.9462   -3.7932   -3.3515 O   0  0  0  0  0
   -3.8891   -0.2847    1.7446 O   0  0  0  0  0
    2.9048    0.9522    0.0724 O   0  0  0  0  0
    3.2227    3.7211    0.5708 O   0  0  0  0  0
  1 24  1  0  0  0
  2  3  1  0  0  0
  2  5  1  0  0  0
  3  7  1  0  0  0
  3 24  1  0  0  0
  4  8  1  0  0  0
  4 16  1  0  0  0
  4 23  1  0  0  0
  5  9  1  0  0  0
  5 25  1  0  0  0
  6 10  1  0  0  0
  6 11  1  0  0  0
  6 26  1  0  0  0
  7 12  1  0  0  0
  7 39  1  0  0  0
  8 13  1  0  0  0
  8 32  1  0  0  0
  9 12  1  0  0  0
  9 40  1  0  0  0
 10 14  1  0  0  0
 10 33  1  0  0  0
 11 17  1  0  0  0
 11 34  1  0  0  0
 12 35  1  0  0  0
 13 15  1  0  0  0
 13 36  1  0  0  0
 14 19  1  0  0  0
 14 30  1  0  0  0
 15 18  1  0  0  0
 15 31  1  0  0  0
 16 31  1  0  0  0
 16 40  1  0  0  0
 17 30  1  0  0  0
 17 39  1  0  0  0
 18 27  1  0  0  0
 19 37  1  0  0  0
 20 21  1  0  0  0
 20 22  1  0  0  0
 21 28  1  0  0  0
 22  1  1  0  0  0
 22 38  1  0  0  0
  1 29  2  0  0  0
M  CHG  4  25   1  26   1  27   1  28   1
M  END
> <rmsd>
0.49258697

$$$$
ZINC77270903


 40 42  0  0  0  0  0  0  0  0999 V2000
    1.8022    2.5853   -3.2873 C   0  0  0  0  0
    1.9298    3.7953    0.2075 C   0  0  0  0  0
    1.5008    2.7446   -0.8278 C   0  0  0  0  0
   -0.3228    0.5251    4.8898 C   0  0  0  0  0
    1.1487    3.6878    1.5201 C   0  0  0  0  0
    4.5294   -2.3774    0.7524 C   0  0  0  0  0
    1.5523    1.3146   -0.2568 C   0  0  0  0  0
    0.1984   -0.4855    5.9220 C   0  0  0  0  0
    1.1506    2.2527    2.0627 C   0  0  0  0  0
    4.7184   -2.7747   -0.7180 C   0  0  0  0  0
    4.1714   -0.8972    0.9126 C   0  0  0  0  0
    0.7252    1.1964    1.0294 C   0  0  0  0  0
    1.3401    0.0940    6.7689 C   0  0  0  0  0
    3.6155   -2.1937   -1.6200 C   0  0  0  0  0
    2.3920    0.7899    5.8900 C   0  0  0  0  0
    0.8440    1.1724    4.1288 C   0  0  0  0  0
    3.0955   -0.4564   -0.0839 C   0  0  0  0  0
    3.4517    1.5148    6.7123 C   0  0  0  0  0
    3.8822   -2.4151   -3.1048 C   0  0  0  0  0
    3.3337    4.2663   -4.4246 C   0  0  0  0  0
    2.2197    5.2756   -4.6876 C   0  0  0  0  0
    2.8373    2.8170   -4.3826 C   0  0  0  0  0
   -1.1560    1.5257    5.5232 N   0  0  0  0  0
    2.2980    2.8648   -2.0268 N   0  0  0  0  0
   -0.2516    4.1511    1.2961 N   0  0  0  0  0
    3.4429   -3.2077    1.3458 N   0  0  0  0  0
    4.4396    2.1165    5.7925 N   0  0  0  0  0
    2.7924    6.6444   -4.6589 N   0  0  0  0  0
    0.6573    2.2118   -3.5334 O   0  0  0  0  0
    3.4925   -0.7806   -1.4161 O   0  0  0  0  0
    1.7709    1.7623    5.0403 O   0  0  0  0  0
    0.6708   -1.6333    5.2160 O   0  0  0  0  0
    6.0008   -2.2950   -1.1293 O   0  0  0  0  0
    5.3612   -0.1332    0.6897 O   0  0  0  0  0
   -0.6543    1.3337    0.6991 O   0  0  0  0  0
    0.8078    1.0309    7.7034 O   0  0  0  0  0
    2.8110   -1.8570   -3.8441 O   0  0  0  0  0
    2.2786    2.4785   -5.6413 O   0  0  0  0  0
    2.8962    0.9481    0.0538 O   0  0  0  0  0
    0.3304    2.1451    3.2225 O   0  0  0  0  0
  1 24  1  0  0  0
  2  3  1  0  0  0
  2  5  1  0  0  0
  3  7  1  0  0  0
  3 24  1  0  0  0
  4  8  1  0  0  0
  4 16  1  0  0  0
  4 23  1  0  0  0
  5  9  1  0  0  0
  5 25  1  0  0  0
  6 10  1  0  0  0
  6 11  1  0  0  0
  6 26  1  0  0  0
  7 12  1  0  0  0
  7 39  1  0  0  0
  8 13  1  0  0  0
  8 32  1  0  0  0
  9 12  1  0  0  0
  9 40  1  0  0  0
 10 14  1  0  0  0
 10 33  1  0  0  0
 11 17  1  0  0  0
 11 34  1  0  0  0
 12 35  1  0  0  0
 13 15  1  0  0  0
 13 36  1  0  0  0
 14 19  1  0  0  0
 14 30  1  0  0  0
 15 18  1  0  0  0
 15 31  1  0  0  0
 16 31  1  0  0  0
 16 40  1  0  0  0
 17 30  1  0  0  0
 17 39  1  0  0  0
 18 27  1  0  0  0
 19 37  1  0  0  0
 20 21  1  0  0  0
 20 22  1  0  0  0
 21 28  1  0  0  0
 22  1  1  0  0  0
 22 38  1  0  0  0
  1 29  2  0  0  0
M  CHG  4  25   1  26   1  27   1  28   1
M  END
> <rmsd>
0.516966045

$$$$
ZINC77270903


 40 42  0  0  0  0  0  0  0  0999 V2000
    1.9649    3.7153   -3.0656 C   0  0  0  0  0
    1.9296    3.7958    0.2077 C   0  0  0  0  0
    1.5006    2.7451   -0.8276 C   0  0  0  0  0
   -0.3231    0.5255    4.8899 C   0  0  0  0  0
    1.1484    3.6883    1.5204 C   0  0  0  0  0
    4.5292   -2.3769    0.7526 C   0  0  0  0  0
    1.5521    1.3151   -0.2567 C   0  0  0  0  0
    0.1981   -0.4851    5.9222 C   0  0  0  0  0
    1.1504    2.2532    2.0628 C   0  0  0  0  0
    4.7182   -2.7742   -0.7179 C   0  0  0  0  0
    4.1712   -0.8967    0.9128 C   0  0  0  0  0
    0.7249    1.1969    1.0296 C   0  0  0  0  0
    1.3398    0.0944    6.7690 C   0  0  0  0  0
    3.6153   -2.1932   -1.6198 C   0  0  0  0  0
    2.3917    0.7903    5.8902 C   0  0  0  0  0
    0.8437    1.1728    4.1290 C   0  0  0  0  0
    3.0953   -0.4559   -0.0837 C   0  0  0  0  0
    3.4514    1.5152    6.7125 C   0  0  0  0  0
    3.8820   -2.4145   -3.1046 C   0  0  0  0  0
    4.3888    4.0789   -3.7416 C   0  0  0  0  0
    4.4521    5.4968   -3.1808 C   0  0  0  0  0
    2.9836    3.6731   -4.1992 C   0  0  0  0  0
   -1.1562    1.5261    5.5233 N   0  0  0  0  0
    2.2977    2.8654   -2.0266 N   0  0  0  0  0
   -0.2518    4.1516    1.2963 N   0  0  0  0  0
    3.4427   -3.2072    1.3459 N   0  0  0  0  0
    4.4393    2.1170    5.7927 N   0  0  0  0  0
    5.8362    5.7727   -2.7222 N   0  0  0  0  0
    0.9798    4.4500   -3.0944 O   0  0  0  0  0
    3.4923   -0.7800   -1.4159 O   0  0  0  0  0
    1.7706    1.7627    5.0405 O   0  0  0  0  0
    0.6705   -1.6329    5.2161 O   0  0  0  0  0
    6.0006   -2.2944   -1.1292 O   0  0  0  0  0
    5.3610   -0.1327    0.6899 O   0  0  0  0  0
   -0.6546    1.3342    0.6993 O   0  0  0  0  0
    0.8075    1.0313    7.7036 O   0  0  0  0  0
    2.8108   -1.8565   -3.8439 O   0  0  0  0  0
    2.5657    4.5361   -5.2438 O   0  0  0  0  0
    2.8960    0.9486    0.0540 O   0  0  0  0  0
    0.3301    2.1456    3.2226 O   0  0  0  0  0
  1 24  1  0  0  0
  2  3  1  0  0  0
  2  5  1  0  0  0
  3  7  1  0  0  0
  3 24  1  0  0  0
  4  8  1  0  0  0
  4 16  1  0  0  0
  4 23  1  0  0  0
  5  9  1  0  0  0
  5 25  1  0  0  0
  6 10  1  0  0  0
  6 11  1  0  0  0
  6 26  1  0  0  0
  7 12  1  0  0  0
  7 39  1  0  0  0
  8 13  1  0  0  0
  8 32  1  0  0  0
  9 12  1  0  0  0
  9 40  1  0  0  0
 10 14  1  0  0  0
 10 33  1  0  0  0
 11 17  1  0  0  0
 11 34  1  0  0  0
 12 35  1  0  0  0
 13 15  1  0  0  0
 13 36  1  0  0  0
 14 19  1  0  0  0
 14 30  1  0  0  0
 15 18  1  0  0  0
 15 31  1  0  0  0
 16 31  1  0  0  0
 16 40  1  0  0  0
 17 30  1  0  0  0
 17 39  1  0  0  0
 18 27  1  0  0  0
 19 37  1  0  0  0
 20 21  1  0  0  0
 20 22  1  0  0  0
 21 28  1  0  0  0
 22  1  1  0  0  0
 22 38  1  0  0  0
  1 29  2  0  0  0
M  CHG  4  25   1  26   1  27   1  28   1
M  END
> <rmsd>
0.516965747

$$$$
ZINC77270907


 40 42  0  0  0  0  0  0  0  0999 V2000
   -1.3439   -0.0507    0.4460 C   0  0  0  0  0
    0.9987    2.3445    2.0451 C   0  0  0  0  0
    0.7096    1.2114    1.0495 C   0  0  0  0  0
    5.4304    4.6988    0.6451 C   0  0  0  0  0
    0.9199    3.7198    1.3804 C   0  0  0  0  0
    4.5322   -2.3805    0.7480 C   0  0  0  0  0
    1.5590    1.3212   -0.2295 C   0  0  0  0  0
    6.2485    5.9624    0.3413 C   0  0  0  0  0
    1.8585    3.8379    0.1737 C   0  0  0  0  0
    4.7113   -2.7725   -0.7250 C   0  0  0  0  0
    4.1798   -0.8998    0.9164 C   0  0  0  0  0
    1.5622    2.7300   -0.8502 C   0  0  0  0  0
    5.5449    7.2353    0.8327 C   0  0  0  0  0
    3.6047   -2.1845   -1.6181 C   0  0  0  0  0
    4.0649    7.2531    0.4175 C   0  0  0  0  0
    3.9657    4.8874    0.2224 C   0  0  0  0  0
    3.0994   -0.4518   -0.0720 C   0  0  0  0  0
    3.3019    8.4232    1.0285 C   0  0  0  0  0
    3.8619   -2.4007   -3.1054 C   0  0  0  0  0
   -3.5711    0.7603    1.3661 C   0  0  0  0  0
   -3.4904   -0.0934    2.6286 C   0  0  0  0  0
   -2.8313    0.1449    0.1734 C   0  0  0  0  0
    5.5310    4.3437    2.0451 N   0  0  0  0  0
   -0.6989    1.1395    0.7332 N   0  0  0  0  0
    1.2618    4.7581    2.3910 N   0  0  0  0  0
    3.4467   -3.2098    1.3446 N   0  0  0  0  0
    1.9057    8.3859    0.5456 N   0  0  0  0  0
   -4.1908    0.6099    3.7319 N   0  0  0  0  0
   -0.8123   -1.1588    0.4258 O   0  0  0  0  0
    3.4873   -0.7718   -1.4078 O   0  0  0  0  0
    3.4117    6.0495    0.8392 O   0  0  0  0  0
    6.4309    6.0405   -1.0728 O   0  0  0  0  0
    5.9925   -2.2950   -1.1421 O   0  0  0  0  0
    5.3706   -0.1386    0.6893 O   0  0  0  0  0
    0.2935    2.9663   -1.4555 O   0  0  0  0  0
    5.6399    7.3100    2.2539 O   0  0  0  0  0
    3.9467   -3.7928   -3.3512 O   0  0  0  0  0
   -3.4219   -1.1035   -0.1484 O   0  0  0  0  0
    2.9052    0.9528    0.0724 O   0  0  0  0  0
    3.2233    3.7217    0.5708 O   0  0  0  0  0
  1 24  1  0  0  0
  2  3  1  0  0  0
  2  5  1  0  0  0
  3  7  1  0  0  0
  3 24  1  0  0  0
  4  8  1  0  0  0
  4 16  1  0  0  0
  4 23  1  0  0  0
  5  9  1  0  0  0
  5 25  1  0  0  0
  6 10  1  0  0  0
  6 11  1  0  0  0
  6 26  1  0  0  0
  7 12  1  0  0  0
  7 39  1  0  0  0
  8 13  1  0  0  0
  8 32  1  0  0  0
  9 12  1  0  0  0
  9 40  1  0  0  0
 10 14  1  0  0  0
 10 33  1  0  0  0
 11 17  1  0  0  0
 11 34  1  0  0  0
 12 35  1  0  0  0
 13 15  1  0  0  0
 13 36  1  0  0  0
 14 19  1  0  0  0
 14 30  1  0  0  0
 15 18  1  0  0  0
 15 31  1  0  0  0
 16 31  1  0  0  0
 16 40  1  0  0  0
 17 30  1  0  0  0
 17 39  1  0  0  0
 18 27  1  0  0  0
 19 37  1  0  0  0
 20 21  1  0  0  0
 20 22  1  0  0  0
 21 28  1  0  0  0
 22  1  1  0  0  0
 22 38  1  0  0  0
  1 29  2  0  0  0
M  CHG  4  25   1  26   1  27   1  28   1
M  END
> <rmsd>
0.492734283

$$$$
ZINC77270907


 40 42  0  0  0  0  0  0  0  0999 V2000
    2.0963    3.3435    4.0917 C   0  0  0  0  0
    1.9931    3.7888    0.8328 C   0  0  0  0  0
    2.2518    2.5729    1.7346 C   0  0  0  0  0
    1.5305    1.5044   -3.9065 C   0  0  0  0  0
    0.5863    3.7632    0.2329 C   0  0  0  0  0
    4.5294   -2.3795    0.7504 C   0  0  0  0  0
    1.9078    1.2424    1.0411 C   0  0  0  0  0
    0.8740    0.7693   -5.0841 C   0  0  0  0  0
    0.3090    2.4718   -0.5459 C   0  0  0  0  0
    4.7116   -2.7747   -0.7214 C   0  0  0  0  0
    4.1783   -0.8979    0.9146 C   0  0  0  0  0
    0.5317    1.2431    0.3509 C   0  0  0  0  0
   -0.5245    1.3192   -5.3980 C   0  0  0  0  0
    3.6081   -2.1873   -1.6186 C   0  0  0  0  0
   -1.3667    1.4702   -4.1208 C   0  0  0  0  0
    0.5523    1.6216   -2.7280 C   0  0  0  0  0
    3.1009   -0.4507   -0.0773 C   0  0  0  0  0
   -2.6989    2.1651   -4.3796 C   0  0  0  0  0
    3.8687   -2.4070   -3.1046 C   0  0  0  0  0
   -0.1746    4.0691    4.9752 C   0  0  0  0  0
    0.0082    5.5299    4.5733 C   0  0  0  0  0
    1.1473    3.3586    5.2851 C   0  0  0  0  0
    2.0161    2.8053   -4.3168 N   0  0  0  0  0
    1.5543    2.6978    2.9943 N   0  0  0  0  0
    0.4297    4.9396   -0.6658 N   0  0  0  0  0
    3.4413   -3.2062    1.3459 N   0  0  0  0  0
   -3.4566    2.2300   -3.1124 N   0  0  0  0  0
   -1.3182    6.1102    4.2473 N   0  0  0  0  0
    3.2047    3.8738    4.1268 O   0  0  0  0  0
    3.4919   -0.7741   -1.4116 O   0  0  0  0  0
   -0.6616    2.2470   -3.1447 O   0  0  0  0  0
    0.7707   -0.6126   -4.7394 O   0  0  0  0  0
    5.9945   -2.2998   -1.1363 O   0  0  0  0  0
    5.3707   -0.1387    0.6890 O   0  0  0  0  0
   -0.4823    1.1923    1.3515 O   0  0  0  0  0
   -0.4015    2.5879   -6.0380 O   0  0  0  0  0
    3.9524   -3.7997   -3.3474 O   0  0  0  0  0
    1.7762    4.0004    6.3821 O   0  0  0  0  0
    2.9082    0.9544    0.0636 O   0  0  0  0  0
    1.1709    2.3581   -1.6764 O   0  0  0  0  0
  1 24  1  0  0  0
  2  3  1  0  0  0
  2  5  1  0  0  0
  3  7  1  0  0  0
  3 24  1  0  0  0
  4  8  1  0  0  0
  4 16  1  0  0  0
  4 23  1  0  0  0
  5  9  1  0  0  0
  5 25  1  0  0  0
  6 10  1  0  0  0
  6 11  1  0  0  0
  6 26  1  0  0  0
  7 12  1  0  0  0
  7 39  1  0  0  0
  8 13  1  0  0  0
  8 32  1  0  0  0
  9 12  1  0  0  0
  9 40  1  0  0  0
 10 14  1  0  0  0
 10 33  1  0  0  0
 11 17  1  0  0  0
 11 34  1  0  0  0
 12 35  1  0  0  0
 13 15  1  0  0  0
 13 36  1  0  0  0
 14 19  1  0  0  0
 14 30  1  0  0  0
 15 18  1  0  0  0
 15 31  1  0  0  0
 16 31  1  0  0  0
 16 40  1  0  0  0
 17 30  1  0  0  0
 17 39  1  0  0  0
 18 27  1  0  0  0
 19 37  1  0  0  0
 20 21  1  0  0  0
 20 22  1  0  0  0
 21 28  1  0  0  0
 22  1  1  0  0  0
 22 38  1  0  0  0
  1 29  2  0  0  0
M  CHG  4  25   1  26   1  27   1  28   1
M  END
> <rmsd>
0.492048502

$$$$
ZINC77270907


 40 42  0  0  0  0  0  0  0  0999 V2000
   -1.3438   -0.0507    0.4463 C   0  0  0  0  0
    0.9989    2.3445    2.0454 C   0  0  0  0  0
    0.7097    1.2114    1.0498 C   0  0  0  0  0
    5.4442    3.7517   -0.3770 C   0  0  0  0  0
    0.9201    3.7198    1.3807 C   0  0  0  0  0
    4.5324   -2.3806    0.7484 C   0  0  0  0  0
    1.5592    1.3212   -0.2292 C   0  0  0  0  0
    6.4160    4.5498   -1.2585 C   0  0  0  0  0
    1.8587    3.8379    0.1740 C   0  0  0  0  0
    4.7114   -2.7725   -0.7247 C   0  0  0  0  0
    4.1799   -0.8998    0.9167 C   0  0  0  0  0
    1.5624    2.7299   -0.8499 C   0  0  0  0  0
    6.4271    6.0420   -0.8976 C   0  0  0  0  0
    3.6049   -2.1845   -1.6178 C   0  0  0  0  0
    4.9997    6.5966   -0.7640 C   0  0  0  0  0
    4.0810    4.4554   -0.2993 C   0  0  0  0  0
    3.0995   -0.4518   -0.0717 C   0  0  0  0  0
    4.9775    8.0311   -0.2480 C   0  0  0  0  0
    3.8620   -2.4007   -3.1051 C   0  0  0  0  0
   -3.0929    1.0723   -1.0178 C   0  0  0  0  0
   -2.4895    0.5594   -2.3223 C   0  0  0  0  0
   -2.8312    0.1448    0.1737 C   0  0  0  0  0
    6.0011    3.5389    0.9425 N   0  0  0  0  0
   -0.6988    1.1394    0.7335 N   0  0  0  0  0
    1.2620    4.7581    2.3913 N   0  0  0  0  0
    3.4469   -3.2098    1.3449 N   0  0  0  0  0
    3.5755    8.4954   -0.1905 N   0  0  0  0  0
   -2.8401    1.4975   -3.4175 N   0  0  0  0  0
   -0.8121   -1.1588    0.4261 O   0  0  0  0  0
    3.4875   -0.7719   -1.4075 O   0  0  0  0  0
    4.2367    5.8010    0.1515 O   0  0  0  0  0
    6.0059    4.3967   -2.6178 O   0  0  0  0  0
    5.9927   -2.2951   -1.1418 O   0  0  0  0  0
    5.3708   -0.1386    0.6896 O   0  0  0  0  0
    0.2937    2.9663   -1.4552 O   0  0  0  0  0
    7.1248    6.2260    0.3328 O   0  0  0  0  0
    2.7882   -1.8364   -3.8358 O   0  0  0  0  0
   -3.4578    0.6796    1.3279 O   0  0  0  0  0
    2.9054    0.9527    0.0728 O   0  0  0  0  0
    3.2234    3.7217    0.5711 O   0  0  0  0  0
  1 24  1  0  0  0
  2  3  1  0  0  0
  2  5  1  0  0  0
  3  7  1  0  0  0
  3 24  1  0  0  0
  4  8  1  0  0  0
  4 16  1  0  0  0
  4 23  1  0  0  0
  5  9  1  0  0  0
  5 25  1  0  0  0
  6 10  1  0  0  0
  6 11  1  0  0  0
  6 26  1  0  0  0
  7 12  1  0  0  0
  7 39  1  0  0  0
  8 13  1  0  0  0
  8 32  1  0  0  0
  9 12  1  0  0  0
  9 40  1  0  0  0
 10 14  1  0  0  0
 10 33  1  0  0  0
 11 17  1  0  0  0
 11 34  1  0  0  0
 12 35  1  0  0  0
 13 15  1  0  0  0
 13 36  1  0  0  0
 14 19  1  0  0  0
 14 30  1  0  0  0
 15 18  1  0  0  0
 15 31  1  0  0  0
 16 31  1  0  0  0
 16 40  1  0  0  0
 17 30  1  0  0  0
 17 39  1  0  0  0
 18 27  1  0  0  0
 19 37  1  0  0  0
 20 21  1  0  0  0
 20 22  1  0  0  0
 21 28  1  0  0  0
 22  1  1  0  0  0
 22 38  1  0  0  0
  1 29  2  0  0  0
M  CHG  4  25   1  26   1  27   1  28   1
M  END
> <rmsd>
0.492734313

$$$$
ZINC77270880


 40 42  0  0  0  0  0  0  0  0999 V2000
   -1.6496    0.5321    1.4644 C   0  0  0  0  0
    1.0639    2.3135    2.0502 C   0  0  0  0  0
    0.7001    1.2174    1.0319 C   0  0  0  0  0
    1.1144    3.7334    1.4673 C   0  0  0  0  0
    4.5318   -2.3792    0.7503 C   0  0  0  0  0
    1.5503    1.3145   -0.2442 C   0  0  0  0  0
    1.9326    3.8134    0.1740 C   0  0  0  0  0
    4.7169   -2.7737   -0.7214 C   0  0  0  0  0
    4.1741   -0.8993    0.9143 C   0  0  0  0  0
    1.5239    2.7316   -0.8348 C   0  0  0  0  0
    6.3466    5.8311    0.1635 C   0  0  0  0  0
    5.7339    7.0840    0.7979 C   0  0  0  0  0
    5.5329    4.5761    0.4869 C   0  0  0  0  0
    3.6115   -2.1910   -1.6193 C   0  0  0  0  0
    4.2451    7.1781    0.4309 C   0  0  0  0  0
    3.0955   -0.4568   -0.0784 C   0  0  0  0  0
    4.0623    4.8144    0.1358 C   0  0  0  0  0
    3.5339    8.3376    1.1181 C   0  0  0  0  0
    3.8742   -2.4095   -3.1053 C   0  0  0  0  0
   -3.5029    2.1997    0.9660 C   0  0  0  0  0
   -3.4869    2.8094    2.3649 C   0  0  0  0  0
   -3.0686    0.7302    0.9433 C   0  0  0  0  0
   -0.7109    1.2273    0.7212 N   0  0  0  0  0
   -0.2714    4.2132    1.2067 N   0  0  0  0  0
    3.4470   -3.2108    1.3450 N   0  0  0  0  0
    2.1258    8.3664    0.6698 N   0  0  0  0  0
   -3.8722    4.2395    2.2723 N   0  0  0  0  0
   -1.4022   -0.1582    2.4510 O   0  0  0  0  0
    3.4890   -0.7783   -1.4123 O   0  0  0  0  0
    3.5561    5.9748    0.8021 O   0  0  0  0  0
    5.9981   -2.2930   -1.1352 O   0  0  0  0  0
    5.3633   -0.1349    0.6897 O   0  0  0  0  0
    2.3774    2.8070   -1.9746 O   0  0  0  0  0
    7.6979    5.6835    0.5816 O   0  0  0  0  0
    5.8943    7.0230    2.2151 O   0  0  0  0  0
    5.6443    4.2805    1.8807 O   0  0  0  0  0
    2.8010   -1.8501   -3.8406 O   0  0  0  0  0
   -3.9712   -0.0353    1.7243 O   0  0  0  0  0
    2.8965    0.9475    0.0625 O   0  0  0  0  0
    3.3167    3.6627    0.5006 O   0  0  0  0  0
  1 23  1  0  0  0
  2  3  1  0  0  0
  2  4  1  0  0  0
  3  6  1  0  0  0
  3 23  1  0  0  0
  4  7  1  0  0  0
  4 24  1  0  0  0
  5  8  1  0  0  0
  5  9  1  0  0  0
  5 25  1  0  0  0
  6 10  1  0  0  0
  6 39  1  0  0  0
  7 10  1  0  0  0
  7 40  1  0  0  0
  8 14  1  0  0  0
  8 31  1  0  0  0
  9 16  1  0  0  0
  9 32  1  0  0  0
 10 33  1  0  0  0
 11 12  1  0  0  0
 11 13  1  0  0  0
 11 34  1  0  0  0
 12 15  1  0  0  0
 12 35  1  0  0  0
 13 17  1  0  0  0
 13 36  1  0  0  0
 14 19  1  0  0  0
 14 29  1  0  0  0
 15 18  1  0  0  0
 15 30  1  0  0  0
 16 29  1  0  0  0
 16 39  1  0  0  0
 17 30  1  0  0  0
 17 40  1  0  0  0
 18 26  1  0  0  0
 19 37  1  0  0  0
 20 21  1  0  0  0
 20 22  1  0  0  0
 21 27  1  0  0  0
 22  1  1  0  0  0
 22 38  1  0  0  0
  1 28  2  0  0  0
M  CHG  4  24   1  25   1  26   1  27   1
M  END
> <rmsd>
0.509737194

$$$$
ZINC72399348


 40 42  0  0  0  0  0  0  0  0999 V2000
   -1.6003    0.4058    1.4843 C   0  0  0  0  0
    0.9990    2.3443    2.0454 C   0  0  0  0  0
    0.7098    1.2114    1.0498 C   0  0  0  0  0
    0.9204    3.7198    1.3808 C   0  0  0  0  0
    4.5320   -2.3810    0.7481 C   0  0  0  0  0
    1.5592    1.3211   -0.2292 C   0  0  0  0  0
    1.8591    3.8377    0.1742 C   0  0  0  0  0
    4.7109   -2.7729   -0.7249 C   0  0  0  0  0
    4.1797   -0.9003    0.9166 C   0  0  0  0  0
    1.5625    2.7298   -0.8499 C   0  0  0  0  0
    6.4364    4.5399   -1.2140 C   0  0  0  0  0
    6.4538    6.0299   -0.8433 C   0  0  0  0  0
    5.4407    3.7512   -0.3569 C   0  0  0  0  0
    3.6045   -2.1848   -1.6180 C   0  0  0  0  0
    5.0251    6.5919   -0.7359 C   0  0  0  0  0
    3.0993   -0.4521   -0.0718 C   0  0  0  0  0
    4.0811    4.4547   -0.2988 C   0  0  0  0  0
    4.9870    8.0264   -0.2219 C   0  0  0  0  0
    3.8617   -2.4009   -3.1052 C   0  0  0  0  0
   -3.5394    1.9621    0.9529 C   0  0  0  0  0
   -3.5630    2.5931    2.3422 C   0  0  0  0  0
   -3.0257    0.5182    0.9548 C   0  0  0  0  0
   -0.6988    1.1395    0.7335 N   0  0  0  0  0
    1.2625    4.7579    2.3915 N   0  0  0  0  0
    3.4463   -3.2103    1.3447 N   0  0  0  0  0
    3.5825    8.4857   -0.1946 N   0  0  0  0  0
   -4.0252    3.9985    2.2257 N   0  0  0  0  0
   -1.3203   -0.2548    2.4824 O   0  0  0  0  0
    3.4873   -0.7721   -1.4076 O   0  0  0  0  0
    4.2394    5.7969    0.1615 O   0  0  0  0  0
    5.9924   -2.2957   -1.1420 O   0  0  0  0  0
    5.3706   -0.1392    0.6896 O   0  0  0  0  0
    0.2939    2.9665   -1.4551 O   0  0  0  0  0
    6.0579    4.3971   -2.5812 O   0  0  0  0  0
    7.1442    6.1713    0.3965 O   0  0  0  0  0
    5.9613    3.6043    0.9646 O   0  0  0  0  0
    2.7879   -1.8365   -3.8358 O   0  0  0  0  0
   -3.8888   -0.2832    1.7443 O   0  0  0  0  0
    2.9054    0.9525    0.0728 O   0  0  0  0  0
    3.2238    3.7214    0.5712 O   0  0  0  0  0
  1 23  1  0  0  0
  2  3  1  0  0  0
  2  4  1  0  0  0
  3  6  1  0  0  0
  3 23  1  0  0  0
  4  7  1  0  0  0
  4 24  1  0  0  0
  5  8  1  0  0  0
  5  9  1  0  0  0
  5 25  1  0  0  0
  6 10  1  0  0  0
  6 39  1  0  0  0
  7 10  1  0  0  0
  7 40  1  0  0  0
  8 14  1  0  0  0
  8 31  1  0  0  0
  9 16  1  0  0  0
  9 32  1  0  0  0
 10 33  1  0  0  0
 11 12  1  0  0  0
 11 13  1  0  0  0
 11 34  1  0  0  0
 12 15  1  0  0  0
 12 35  1  0  0  0
 13 17  1  0  0  0
 13 36  1  0  0  0
 14 19  1  0  0  0
 14 29  1  0  0  0
 15 18  1  0  0  0
 15 30  1  0  0  0
 16 29  1  0  0  0
 16 39  1  0  0  0
 17 30  1  0  0  0
 17 40  1  0  0  0
 18 26  1  0  0  0
 19 37  1  0  0  0
 20 21  1  0  0  0
 20 22  1  0  0  0
 21 27  1  0  0  0
 22  1  1  0  0  0
 22 38  1  0  0  0
  1 28  2  0  0  0
M  CHG  4  24   1  25   1  26   1  27   1
M  END
> <rmsd>
0.492583781

$$$$
ZINC72399348


 40 42  0  0  0  0  0  0  0  0999 V2000
   -1.3441   -0.0502    0.4465 C   0  0  0  0  0
    0.9991    2.3447    2.0453 C   0  0  0  0  0
    0.7097    1.2117    1.0498 C   0  0  0  0  0
    0.9204    3.7201    1.3806 C   0  0  0  0  0
    4.5319   -2.3808    0.7482 C   0  0  0  0  0
    1.5591    1.3213   -0.2293 C   0  0  0  0  0
    1.8590    3.8379    0.1738 C   0  0  0  0  0
    4.7107   -2.7729   -0.7248 C   0  0  0  0  0
    4.1796   -0.9001    0.9165 C   0  0  0  0  0
    1.5624    2.7299   -0.8501 C   0  0  0  0  0
    6.4362    4.5399   -1.2148 C   0  0  0  0  0
    6.4536    6.0299   -0.8442 C   0  0  0  0  0
    5.4406    3.7513   -0.3575 C   0  0  0  0  0
    3.6043   -2.1848   -1.6179 C   0  0  0  0  0
    5.0250    6.5920   -0.7367 C   0  0  0  0  0
    3.0992   -0.4520   -0.0718 C   0  0  0  0  0
    4.0810    4.4549   -0.2993 C   0  0  0  0  0
    4.9869    8.0266   -0.2228 C   0  0  0  0  0
    3.8613   -2.4010   -3.1051 C   0  0  0  0  0
   -3.5711    0.7611    1.3668 C   0  0  0  0  0
   -3.4903   -0.0924    2.6293 C   0  0  0  0  0
   -2.8314    0.1455    0.1740 C   0  0  0  0  0
   -0.6988    1.1398    0.7336 N   0  0  0  0  0
    1.2626    4.7584    2.3911 N   0  0  0  0  0
    3.4462   -3.2100    1.3449 N   0  0  0  0  0
    3.5825    8.4859   -0.1955 N   0  0  0  0  0
   -4.1905    0.6109    3.7326 N   0  0  0  0  0
   -0.8126   -1.1584    0.4264 O   0  0  0  0  0
    3.4871   -0.7721   -1.4076 O   0  0  0  0  0
    4.2394    5.7970    0.1608 O   0  0  0  0  0
    5.9921   -2.2957   -1.1420 O   0  0  0  0  0
    5.3705   -0.1390    0.6894 O   0  0  0  0  0
    0.2937    2.9665   -1.4552 O   0  0  0  0  0
    6.0577    4.3970   -2.5819 O   0  0  0  0  0
    7.1442    6.1715    0.3956 O   0  0  0  0  0
    5.9613    3.6045    0.9640 O   0  0  0  0  0
    2.7874   -1.8367   -3.8357 O   0  0  0  0  0
   -3.4222   -1.1027   -0.1477 O   0  0  0  0  0
    2.9052    0.9527    0.0727 O   0  0  0  0  0
    3.2238    3.7216    0.5708 O   0  0  0  0  0
  1 23  1  0  0  0
  2  3  1  0  0  0
  2  4  1  0  0  0
  3  6  1  0  0  0
  3 23  1  0  0  0
  4  7  1  0  0  0
  4 24  1  0  0  0
  5  8  1  0  0  0
  5  9  1  0  0  0
  5 25  1  0  0  0
  6 10  1  0  0  0
  6 39  1  0  0  0
  7 10  1  0  0  0
  7 40  1  0  0  0
  8 14  1  0  0  0
  8 31  1  0  0  0
  9 16  1  0  0  0
  9 32  1  0  0  0
 10 33  1  0  0  0
 11 12  1  0  0  0
 11 13  1  0  0  0
 11 34  1  0  0  0
 12 15  1  0  0  0
 12 35  1  0  0  0
 13 17  1  0  0  0
 13 36  1  0  0  0
 14 19  1  0  0  0
 14 29  1  0  0  0
 15 18  1  0  0  0
 15 30  1  0  0  0
 16 29  1  0  0  0
 16 39  1  0  0  0
 17 30  1  0  0  0
 17 40  1  0  0  0
 18 26  1  0  0  0
 19 37  1  0  0  0
 20 21  1  0  0  0
 20 22  1  0  0  0
 21 27  1  0  0  0
 22  1  1  0  0  0
 22 38  1  0  0  0
  1 28  2  0  0  0
M  CHG  4  24   1  25   1  26   1  27   1
M  END
> <rmsd>
0.492333055

$$$$
ZINC77270885


 40 42  0  0  0  0  0  0  0  0999 V2000
   -1.6251    0.4636    1.4877 C   0  0  0  0  0
    1.0412    2.3193    2.0483 C   0  0  0  0  0
    0.7021    1.2114    1.0394 C   0  0  0  0  0
    1.0438    3.7317    1.4533 C   0  0  0  0  0
    4.5316   -2.3798    0.7492 C   0  0  0  0  0
    1.5537    1.3163   -0.2369 C   0  0  0  0  0
    1.8684    3.8311    0.1641 C   0  0  0  0  0
    4.7138   -2.7729   -0.7232 C   0  0  0  0  0
    4.1763   -0.8996    0.9155 C   0  0  0  0  0
    1.5572    2.7240   -0.8545 C   0  0  0  0  0
    6.3040    4.6926   -1.4567 C   0  0  0  0  0
    6.3438    6.1624   -1.0254 C   0  0  0  0  0
    5.4147    3.8552   -0.5350 C   0  0  0  0  0
    3.6078   -2.1876   -1.6187 C   0  0  0  0  0
    4.9123    6.6962   -0.8641 C   0  0  0  0  0
    3.0969   -0.4542   -0.0750 C   0  0  0  0  0
    4.0416    4.5190   -0.4060 C   0  0  0  0  0
    4.8646    8.1209   -0.3253 C   0  0  0  0  0
    3.8678   -2.4048   -3.1053 C   0  0  0  0  0
   -3.5268    2.0749    0.9862 C   0  0  0  0  0
   -3.5217    2.6949    2.3806 C   0  0  0  0  0
   -3.0515    0.6181    0.9718 C   0  0  0  0  0
   -0.7095    1.1796    0.7352 N   0  0  0  0  0
   -0.3558    4.1618    1.1837 N   0  0  0  0  0
    3.4464   -3.2105    1.3447 N   0  0  0  0  0
    3.4536    8.5541   -0.2465 N   0  0  0  0  0
   -3.9474    4.1129    2.2796 N   0  0  0  0  0
   -1.3541   -0.2123    2.4780 O   0  0  0  0  0
    3.4877   -0.7749   -1.4099 O   0  0  0  0  0
    4.1649    5.8719    0.0427 O   0  0  0  0  0
    5.9950   -2.2937   -1.1385 O   0  0  0  0  0
    5.3663   -0.1366    0.6898 O   0  0  0  0  0
    0.2945    2.9930   -1.4569 O   0  0  0  0  0
    7.6232    4.1639   -1.5096 O   0  0  0  0  0
    7.0585    6.2748    0.2051 O   0  0  0  0  0
    6.0185    3.7629    0.7569 O   0  0  0  0  0
    2.7942   -1.8430   -3.8383 O   0  0  0  0  0
   -3.9287   -0.1668    1.7625 O   0  0  0  0  0
    2.9001    0.9501    0.0678 O   0  0  0  0  0
    3.2555    3.7617    0.4996 O   0  0  0  0  0
  1 23  1  0  0  0
  2  3  1  0  0  0
  2  4  1  0  0  0
  3  6  1  0  0  0
  3 23  1  0  0  0
  4  7  1  0  0  0
  4 24  1  0  0  0
  5  8  1  0  0  0
  5  9  1  0  0  0
  5 25  1  0  0  0
  6 10  1  0  0  0
  6 39  1  0  0  0
  7 10  1  0  0  0
  7 40  1  0  0  0
  8 14  1  0  0  0
  8 31  1  0  0  0
  9 16  1  0  0  0
  9 32  1  0  0  0
 10 33  1  0  0  0
 11 12  1  0  0  0
 11 13  1  0  0  0
 11 34  1  0  0  0
 12 15  1  0  0  0
 12 35  1  0  0  0
 13 17  1  0  0  0
 13 36  1  0  0  0
 14 19  1  0  0  0
 14 29  1  0  0  0
 15 18  1  0  0  0
 15 30  1  0  0  0
 16 29  1  0  0  0
 16 39  1  0  0  0
 17 30  1  0  0  0
 17 40  1  0  0  0
 18 26  1  0  0  0
 19 37  1  0  0  0
 20 21  1  0  0  0
 20 22  1  0  0  0
 21 27  1  0  0  0
 22  1  1  0  0  0
 22 38  1  0  0  0
  1 28  2  0  0  0
M  CHG  4  24   1  25   1  26   1  27   1
M  END
> <rmsd>
0.502223372

$$$$
ZINC77270880


 40 42  0  0  0  0  0  0  0  0999 V2000
   -1.6497    0.5322    1.4639 C   0  0  0  0  0
    1.0638    2.3136    2.0497 C   0  0  0  0  0
    0.7000    1.2175    1.0314 C   0  0  0  0  0
    1.1143    3.7336    1.4667 C   0  0  0  0  0
    4.5317   -2.3791    0.7498 C   0  0  0  0  0
    1.5502    1.3146   -0.2448 C   0  0  0  0  0
    1.9325    3.8135    0.1735 C   0  0  0  0  0
    4.7168   -2.7735   -0.7220 C   0  0  0  0  0
    4.1740   -0.8992    0.9138 C   0  0  0  0  0
    1.5239    2.7317   -0.8354 C   0  0  0  0  0
    6.0743    6.1784    0.7511 C   0  0  0  0  0
    5.8397    6.5461    2.2200 C   0  0  0  0  0
    5.3890    4.8616    0.3798 C   0  0  0  0  0
    3.6114   -2.1909   -1.6199 C   0  0  0  0  0
    4.3367    6.4994    2.5343 C   0  0  0  0  0
    3.0954   -0.4566   -0.0789 C   0  0  0  0  0
    3.9171    4.9145    0.7964 C   0  0  0  0  0
    4.0278    6.7416    4.0069 C   0  0  0  0  0
    3.8741   -2.4094   -3.1058 C   0  0  0  0  0
   -3.5030    2.1998    0.9654 C   0  0  0  0  0
   -3.4870    2.8095    2.3644 C   0  0  0  0  0
   -3.0687    0.7303    0.9427 C   0  0  0  0  0
   -0.7110    1.2274    0.7206 N   0  0  0  0  0
   -0.2715    4.2133    1.2062 N   0  0  0  0  0
    3.4469   -3.2107    1.3444 N   0  0  0  0  0
    2.6267    7.1952    4.1321 N   0  0  0  0  0
   -3.8723    4.2396    2.2717 N   0  0  0  0  0
   -1.4023   -0.1581    2.4505 O   0  0  0  0  0
    3.4889   -0.7782   -1.4129 O   0  0  0  0  0
    3.7875    5.2191    2.1883 O   0  0  0  0  0
    5.9980   -2.2929   -1.1358 O   0  0  0  0  0
    5.3632   -0.1347    0.6892 O   0  0  0  0  0
    2.3773    2.8072   -1.9752 O   0  0  0  0  0
    7.4691    6.1209    0.4793 O   0  0  0  0  0
    6.5514    5.6331    3.0553 O   0  0  0  0  0
    6.0332    3.7803    1.0566 O   0  0  0  0  0
    2.8009   -1.8500   -3.8412 O   0  0  0  0  0
   -3.9713   -0.0352    1.7238 O   0  0  0  0  0
    2.8964    0.9476    0.0620 O   0  0  0  0  0
    3.3166    3.6629    0.5000 O   0  0  0  0  0
  1 23  1  0  0  0
  2  3  1  0  0  0
  2  4  1  0  0  0
  3  6  1  0  0  0
  3 23  1  0  0  0
  4  7  1  0  0  0
  4 24  1  0  0  0
  5  8  1  0  0  0
  5  9  1  0  0  0
  5 25  1  0  0  0
  6 10  1  0  0  0
  6 39  1  0  0  0
  7 10  1  0  0  0
  7 40  1  0  0  0
  8 14  1  0  0  0
  8 31  1  0  0  0
  9 16  1  0  0  0
  9 32  1  0  0  0
 10 33  1  0  0  0
 11 12  1  0  0  0
 11 13  1  0  0  0
 11 34  1  0  0  0
 12 15  1  0  0  0
 12 35  1  0  0  0
 13 17  1  0  0  0
 13 36  1  0  0  0
 14 19  1  0  0  0
 14 29  1  0  0  0
 15 18  1  0  0  0
 15 30  1  0  0  0
 16 29  1  0  0  0
 16 39  1  0  0  0
 17 30  1  0  0  0
 17 40  1  0  0  0
 18 26  1  0  0  0
 19 37  1  0  0  0
 20 21  1  0  0  0
 20 22  1  0  0  0
 21 27  1  0  0  0
 22  1  1  0  0  0
 22 38  1  0  0  0
  1 28  2  0  0  0
M  CHG  4  24   1  25   1  26   1  27   1
M  END
> <rmsd>
0.509737313

$$$$
ZINC72399348


 40 42  0  0  0  0  0  0  0  0999 V2000
   -1.6003    0.4059    1.4850 C   0  0  0  0  0
    0.9991    2.3445    2.0457 C   0  0  0  0  0
    0.7097    1.2116    1.0501 C   0  0  0  0  0
    0.9203    3.7199    1.3810 C   0  0  0  0  0
    4.5320   -2.3808    0.7482 C   0  0  0  0  0
    1.5590    1.3212   -0.2290 C   0  0  0  0  0
    1.8588    3.8378    0.1742 C   0  0  0  0  0
    4.7107   -2.7728   -0.7248 C   0  0  0  0  0
    4.1797   -0.9001    0.9166 C   0  0  0  0  0
    1.5622    2.7299   -0.8497 C   0  0  0  0  0
    6.2543    5.9484    0.3886 C   0  0  0  0  0
    5.5535    7.2190    0.8910 C   0  0  0  0  0
    5.4206    4.6921    0.6616 C   0  0  0  0  0
    3.6042   -2.1847   -1.6179 C   0  0  0  0  0
    4.0787    7.2498    0.4526 C   0  0  0  0  0
    3.0992   -0.4520   -0.0716 C   0  0  0  0  0
    3.9658    4.8866    0.2227 C   0  0  0  0  0
    3.3028    8.4153    1.0552 C   0  0  0  0  0
    3.8612   -2.4009   -3.1051 C   0  0  0  0  0
   -3.5395    1.9621    0.9538 C   0  0  0  0  0
   -3.5629    2.5932    2.3431 C   0  0  0  0  0
   -3.0257    0.5183    0.9557 C   0  0  0  0  0
   -0.6989    1.1396    0.7341 N   0  0  0  0  0
    1.2625    4.7582    2.3916 N   0  0  0  0  0
    3.4464   -3.2100    1.3449 N   0  0  0  0  0
    1.9167    8.3805    0.5436 N   0  0  0  0  0
   -4.0251    3.9986    2.2266 N   0  0  0  0  0
   -1.3201   -0.2546    2.4832 O   0  0  0  0  0
    3.4870   -0.7720   -1.4075 O   0  0  0  0  0
    3.4122    6.0441    0.8490 O   0  0  0  0  0
    5.9921   -2.2955   -1.1421 O   0  0  0  0  0
    5.3705   -0.1390    0.6894 O   0  0  0  0  0
    0.2935    2.9665   -1.4547 O   0  0  0  0  0
    6.4620    6.0481   -1.0185 O   0  0  0  0  0
    5.6560    7.2502    2.3132 O   0  0  0  0  0
    5.4639    4.3852    2.0555 O   0  0  0  0  0
    3.9458   -3.7931   -3.3510 O   0  0  0  0  0
   -3.8887   -0.2831    1.7454 O   0  0  0  0  0
    2.9052    0.9527    0.0729 O   0  0  0  0  0
    3.2236    3.7216    0.5712 O   0  0  0  0  0
  1 23  1  0  0  0
  2  3  1  0  0  0
  2  4  1  0  0  0
  3  6  1  0  0  0
  3 23  1  0  0  0
  4  7  1  0  0  0
  4 24  1  0  0  0
  5  8  1  0  0  0
  5  9  1  0  0  0
  5 25  1  0  0  0
  6 10  1  0  0  0
  6 39  1  0  0  0
  7 10  1  0  0  0
  7 40  1  0  0  0
  8 14  1  0  0  0
  8 31  1  0  0  0
  9 16  1  0  0  0
  9 32  1  0  0  0
 10 33  1  0  0  0
 11 12  1  0  0  0
 11 13  1  0  0  0
 11 34  1  0  0  0
 12 15  1  0  0  0
 12 35  1  0  0  0
 13 17  1  0  0  0
 13 36  1  0  0  0
 14 19  1  0  0  0
 14 29  1  0  0  0
 15 18  1  0  0  0
 15 30  1  0  0  0
 16 29  1  0  0  0
 16 39  1  0  0  0
 17 30  1  0  0  0
 17 40  1  0  0  0
 18 26  1  0  0  0
 19 37  1  0  0  0
 20 21  1  0  0  0
 20 22  1  0  0  0
 21 27  1  0  0  0
 22  1  1  0  0  0
 22 38  1  0  0  0
  1 28  2  0  0  0
M  CHG  4  24   1  25   1  26   1  27   1
M  END
> <rmsd>
0.492208987

$$$$
ZINC77270885


 40 42  0  0  0  0  0  0  0  0999 V2000
   -1.6251    0.4635    1.4875 C   0  0  0  0  0
    1.0412    2.3191    2.0482 C   0  0  0  0  0
    0.7022    1.2113    1.0392 C   0  0  0  0  0
    1.0438    3.7315    1.4533 C   0  0  0  0  0
    4.5316   -2.3799    0.7492 C   0  0  0  0  0
    1.5537    1.3161   -0.2370 C   0  0  0  0  0
    1.8685    3.8310    0.1641 C   0  0  0  0  0
    4.7138   -2.7730   -0.7232 C   0  0  0  0  0
    4.1764   -0.8997    0.9154 C   0  0  0  0  0
    1.5573    2.7239   -0.8545 C   0  0  0  0  0
    6.1594    6.0903    0.1376 C   0  0  0  0  0
    5.4740    7.3173    0.7481 C   0  0  0  0  0
    5.4162    4.7971    0.4793 C   0  0  0  0  0
    3.6079   -2.1877   -1.6188 C   0  0  0  0  0
    3.9841    7.3209    0.3735 C   0  0  0  0  0
    3.0969   -0.4543   -0.0751 C   0  0  0  0  0
    3.9362    4.9459    0.1183 C   0  0  0  0  0
    3.2052    8.4499    1.0378 C   0  0  0  0  0
    3.8679   -2.4049   -3.1053 C   0  0  0  0  0
   -3.5268    2.0748    0.9859 C   0  0  0  0  0
   -3.5216    2.6948    2.3804 C   0  0  0  0  0
   -3.0515    0.6180    0.9716 C   0  0  0  0  0
   -0.7095    1.1795    0.7350 N   0  0  0  0  0
   -0.3557    4.1617    1.1836 N   0  0  0  0  0
    3.4464   -3.2106    1.3446 N   0  0  0  0  0
    1.8000    8.3915    0.5836 N   0  0  0  0  0
   -3.9474    4.1128    2.2794 N   0  0  0  0  0
   -1.3542   -0.2124    2.4778 O   0  0  0  0  0
    3.4878   -0.7750   -1.4099 O   0  0  0  0  0
    3.3623    6.0871    0.7625 O   0  0  0  0  0
    5.9950   -2.2938   -1.1385 O   0  0  0  0  0
    5.3663   -0.1368    0.6898 O   0  0  0  0  0
    0.2946    2.9929   -1.4570 O   0  0  0  0  0
    7.5148    6.0264    0.5636 O   0  0  0  0  0
    5.6305    7.2894    2.1666 O   0  0  0  0  0
    5.5372    4.5319    1.8784 O   0  0  0  0  0
    3.9555   -3.7971   -3.3497 O   0  0  0  0  0
   -3.9287   -0.1669    1.7622 O   0  0  0  0  0
    2.9002    0.9500    0.0677 O   0  0  0  0  0
    3.2556    3.7616    0.4996 O   0  0  0  0  0
  1 23  1  0  0  0
  2  3  1  0  0  0
  2  4  1  0  0  0
  3  6  1  0  0  0
  3 23  1  0  0  0
  4  7  1  0  0  0
  4 24  1  0  0  0
  5  8  1  0  0  0
  5  9  1  0  0  0
  5 25  1  0  0  0
  6 10  1  0  0  0
  6 39  1  0  0  0
  7 10  1  0  0  0
  7 40  1  0  0  0
  8 14  1  0  0  0
  8 31  1  0  0  0
  9 16  1  0  0  0
  9 32  1  0  0  0
 10 33  1  0  0  0
 11 12  1  0  0  0
 11 13  1  0  0  0
 11 34  1  0  0  0
 12 15  1  0  0  0
 12 35  1  0  0  0
 13 17  1  0  0  0
 13 36  1  0  0  0
 14 19  1  0  0  0
 14 29  1  0  0  0
 15 18  1  0  0  0
 15 30  1  0  0  0
 16 29  1  0  0  0
 16 39  1  0  0  0
 17 30  1  0  0  0
 17 40  1  0  0  0
 18 26  1  0  0  0
 19 37  1  0  0  0
 20 21  1  0  0  0
 20 22  1  0  0  0
 21 27  1  0  0  0
 22  1  1  0  0  0
 22 38  1  0  0  0
  1 28  2  0  0  0
M  CHG  4  24   1  25   1  26   1  27   1
M  END
> <rmsd>
0.502260864

$$$$
ZINC77270880


 40 42  0  0  0  0  0  0  0  0999 V2000
   -1.6500    0.5325    1.4641 C   0  0  0  0  0
    1.0635    2.3140    2.0499 C   0  0  0  0  0
    0.6997    1.2179    1.0316 C   0  0  0  0  0
    1.1140    3.7339    1.4669 C   0  0  0  0  0
    4.5315   -2.3787    0.7500 C   0  0  0  0  0
    1.5500    1.3149   -0.2446 C   0  0  0  0  0
    1.9323    3.8139    0.1737 C   0  0  0  0  0
    4.7165   -2.7732   -0.7217 C   0  0  0  0  0
    4.1737   -0.8989    0.9140 C   0  0  0  0  0
    1.5236    2.7321   -0.8352 C   0  0  0  0  0
    5.1590    6.8429   -0.1997 C   0  0  0  0  0
    6.2094    6.6805    0.9041 C   0  0  0  0  0
    4.4476    5.5226   -0.5040 C   0  0  0  0  0
    3.6111   -2.1905   -1.6196 C   0  0  0  0  0
    5.5770    6.0008    2.1281 C   0  0  0  0  0
    3.0952   -0.4563   -0.0787 C   0  0  0  0  0
    3.9168    4.9149    0.7966 C   0  0  0  0  0
    6.5859    5.6987    3.2297 C   0  0  0  0  0
    3.8739   -2.4090   -3.1056 C   0  0  0  0  0
   -3.5033    2.2002    0.9656 C   0  0  0  0  0
   -3.4873    2.8099    2.3646 C   0  0  0  0  0
   -3.0690    0.7307    0.9430 C   0  0  0  0  0
   -0.7113    1.2278    0.7209 N   0  0  0  0  0
   -0.2717    4.2137    1.2064 N   0  0  0  0  0
    3.4467   -3.2103    1.3447 N   0  0  0  0  0
    5.8637    5.5529    4.5109 N   0  0  0  0  0
   -3.8726    4.2400    2.2719 N   0  0  0  0  0
   -1.4026   -0.1577    2.4507 O   0  0  0  0  0
    3.4886   -0.7778   -1.4126 O   0  0  0  0  0
    4.9665    4.7562    1.7556 O   0  0  0  0  0
    5.9977   -2.2925   -1.1355 O   0  0  0  0  0
    5.3630   -0.1344    0.6894 O   0  0  0  0  0
    2.3771    2.8075   -1.9750 O   0  0  0  0  0
    5.7614    7.3786   -1.3713 O   0  0  0  0  0
    7.2984    5.9015    0.4093 O   0  0  0  0  0
    5.3680    4.6127   -1.1100 O   0  0  0  0  0
    2.8006   -1.8496   -3.8409 O   0  0  0  0  0
   -3.9716   -0.0348    1.7240 O   0  0  0  0  0
    2.8962    0.9480    0.0622 O   0  0  0  0  0
    3.3163    3.6632    0.5003 O   0  0  0  0  0
  1 23  1  0  0  0
  2  3  1  0  0  0
  2  4  1  0  0  0
  3  6  1  0  0  0
  3 23  1  0  0  0
  4  7  1  0  0  0
  4 24  1  0  0  0
  5  8  1  0  0  0
  5  9  1  0  0  0
  5 25  1  0  0  0
  6 10  1  0  0  0
  6 39  1  0  0  0
  7 10  1  0  0  0
  7 40  1  0  0  0
  8 14  1  0  0  0
  8 31  1  0  0  0
  9 16  1  0  0  0
  9 32  1  0  0  0
 10 33  1  0  0  0
 11 12  1  0  0  0
 11 13  1  0  0  0
 11 34  1  0  0  0
 12 15  1  0  0  0
 12 35  1  0  0  0
 13 17  1  0  0  0
 13 36  1  0  0  0
 14 19  1  0  0  0
 14 29  1  0  0  0
 15 18  1  0  0  0
 15 30  1  0  0  0
 16 29  1  0  0  0
 16 39  1  0  0  0
 17 30  1  0  0  0
 17 40  1  0  0  0
 18 26  1  0  0  0
 19 37  1  0  0  0
 20 21  1  0  0  0
 20 22  1  0  0  0
 21 27  1  0  0  0
 22  1  1  0  0  0
 22 38  1  0  0  0
  1 28  2  0  0  0
M  CHG  4  24   1  25   1  26   1  27   1
M  END
> <rmsd>
0.509737253

$$$$
ZINC72399348


 40 42  0  0  0  0  0  0  0  0999 V2000
   -1.3442   -0.0505    0.4469 C   0  0  0  0  0
    0.9989    2.3444    2.0456 C   0  0  0  0  0
    0.7096    1.2115    1.0500 C   0  0  0  0  0
    0.9202    3.7198    1.3810 C   0  0  0  0  0
    4.5319   -2.3808    0.7479 C   0  0  0  0  0
    1.5588    1.3211   -0.2291 C   0  0  0  0  0
    1.8586    3.8378    0.1742 C   0  0  0  0  0
    4.7106   -2.7728   -0.7251 C   0  0  0  0  0
    4.1796   -0.9001    0.9164 C   0  0  0  0  0
    1.5620    2.7298   -0.8498 C   0  0  0  0  0
    6.4357    4.5401   -1.2148 C   0  0  0  0  0
    6.4531    6.0301   -0.8441 C   0  0  0  0  0
    5.4402    3.7514   -0.3574 C   0  0  0  0  0
    3.6041   -2.1847   -1.6181 C   0  0  0  0  0
    5.0244    6.5921   -0.7365 C   0  0  0  0  0
    3.0991   -0.4520   -0.0718 C   0  0  0  0  0
    4.0806    4.4549   -0.2992 C   0  0  0  0  0
    4.9863    8.0266   -0.2225 C   0  0  0  0  0
    3.8610   -2.4009   -3.1053 C   0  0  0  0  0
   -3.0934    1.0726   -1.0169 C   0  0  0  0  0
   -2.4902    0.5597   -2.3216 C   0  0  0  0  0
   -2.8315    0.1451    0.1745 C   0  0  0  0  0
   -0.6990    1.1395    0.7340 N   0  0  0  0  0
    1.2623    4.7581    2.3916 N   0  0  0  0  0
    3.4464   -3.2101    1.3447 N   0  0  0  0  0
    3.5818    8.4859   -0.1951 N   0  0  0  0  0
   -2.8409    1.4978   -3.4167 N   0  0  0  0  0
   -0.8126   -1.1587    0.4266 O   0  0  0  0  0
    3.4868   -0.7720   -1.4077 O   0  0  0  0  0
    4.2389    5.7970    0.1611 O   0  0  0  0  0
    5.9920   -2.2955   -1.1424 O   0  0  0  0  0
    5.3704   -0.1390    0.6892 O   0  0  0  0  0
    0.2933    2.9664   -1.4548 O   0  0  0  0  0
    6.0570    4.3973   -2.5819 O   0  0  0  0  0
    7.1437    6.1716    0.3956 O   0  0  0  0  0
    5.9610    3.6046    0.9639 O   0  0  0  0  0
    2.7871   -1.8366   -3.8358 O   0  0  0  0  0
   -3.4580    0.6800    1.3288 O   0  0  0  0  0
    2.9050    0.9526    0.0727 O   0  0  0  0  0
    3.2234    3.7215    0.5710 O   0  0  0  0  0
  1 23  1  0  0  0
  2  3  1  0  0  0
  2  4  1  0  0  0
  3  6  1  0  0  0
  3 23  1  0  0  0
  4  7  1  0  0  0
  4 24  1  0  0  0
  5  8  1  0  0  0
  5  9  1  0  0  0
  5 25  1  0  0  0
  6 10  1  0  0  0
  6 39  1  0  0  0
  7 10  1  0  0  0
  7 40  1  0  0  0
  8 14  1  0  0  0
  8 31  1  0  0  0
  9 16  1  0  0  0
  9 32  1  0  0  0
 10 33  1  0  0  0
 11 12  1  0  0  0
 11 13  1  0  0  0
 11 34  1  0  0  0
 12 15  1  0  0  0
 12 35  1  0  0  0
 13 17  1  0  0  0
 13 36  1  0  0  0
 14 19  1  0  0  0
 14 29  1  0  0  0
 15 18  1  0  0  0
 15 30  1  0  0  0
 16 29  1  0  0  0
 16 39  1  0  0  0
 17 30  1  0  0  0
 17 40  1  0  0  0
 18 26  1  0  0  0
 19 37  1  0  0  0
 20 21  1  0  0  0
 20 22  1  0  0  0
 21 27  1  0  0  0
 22  1  1  0  0  0
 22 38  1  0  0  0
  1 28  2  0  0  0
M  CHG  4  24   1  25   1  26   1  27   1
M  END
> <rmsd>
0.492225379

$$$$
ZINC72399347


 40 42  0  0  0  0  0  0  0  0999 V2000
    1.8021    2.5854   -3.2878 C   0  0  0  0  0
    1.9292    3.7956    0.2070 C   0  0  0  0  0
    1.5003    2.7448   -0.8285 C   0  0  0  0  0
    1.1479    3.6880    1.5195 C   0  0  0  0  0
    4.5289   -2.3771    0.7524 C   0  0  0  0  0
    1.5517    1.3148   -0.2574 C   0  0  0  0  0
    1.1497    2.2530    2.0621 C   0  0  0  0  0
    4.7181   -2.7743   -0.7180 C   0  0  0  0  0
    4.1708   -0.8968    0.9125 C   0  0  0  0  0
    0.7245    1.1966    1.0288 C   0  0  0  0  0
    0.1667   -0.4523    5.9426 C   0  0  0  0  0
    1.3009    0.1338    6.7956 C   0  0  0  0  0
   -0.3286    0.5452    4.8900 C   0  0  0  0  0
    3.6152   -2.1935   -1.6202 C   0  0  0  0  0
    2.3676    0.8070    5.9139 C   0  0  0  0  0
    3.0950   -0.4562   -0.0841 C   0  0  0  0  0
    0.8426    1.1731    4.1278 C   0  0  0  0  0
    3.4349    1.5355    6.7225 C   0  0  0  0  0
    3.8821   -2.4149   -3.1049 C   0  0  0  0  0
    3.3336    4.2664   -4.4249 C   0  0  0  0  0
    2.2196    5.2757   -4.6881 C   0  0  0  0  0
    2.8373    2.8171   -4.3831 C   0  0  0  0  0
    2.2976    2.8650   -2.0274 N   0  0  0  0  0
   -0.2524    4.1514    1.2951 N   0  0  0  0  0
    3.4423   -3.2074    1.3457 N   0  0  0  0  0
    4.4291    2.1093    5.7917 N   0  0  0  0  0
    2.7922    6.6445   -4.6594 N   0  0  0  0  0
    0.6571    2.2119   -3.5342 O   0  0  0  0  0
    3.4922   -0.7804   -1.4163 O   0  0  0  0  0
    1.7625    1.7704    5.0417 O   0  0  0  0  0
    6.0005   -2.2947   -1.1291 O   0  0  0  0  0
    5.3606   -0.1328    0.6897 O   0  0  0  0  0
   -0.6550    1.3339    0.6983 O   0  0  0  0  0
    0.6366   -1.6165    5.2666 O   0  0  0  0  0
    0.7327    1.0748    7.7043 O   0  0  0  0  0
   -1.0908    1.5708    5.5272 O   0  0  0  0  0
    2.8109   -1.8569   -3.8444 O   0  0  0  0  0
    2.2788    2.4786   -5.6417 O   0  0  0  0  0
    2.8957    0.9483    0.0535 O   0  0  0  0  0
    0.3294    2.1454    3.2217 O   0  0  0  0  0
  1 23  1  0  0  0
  2  3  1  0  0  0
  2  4  1  0  0  0
  3  6  1  0  0  0
  3 23  1  0  0  0
  4  7  1  0  0  0
  4 24  1  0  0  0
  5  8  1  0  0  0
  5  9  1  0  0  0
  5 25  1  0  0  0
  6 10  1  0  0  0
  6 39  1  0  0  0
  7 10  1  0  0  0
  7 40  1  0  0  0
  8 14  1  0  0  0
  8 31  1  0  0  0
  9 16  1  0  0  0
  9 32  1  0  0  0
 10 33  1  0  0  0
 11 12  1  0  0  0
 11 13  1  0  0  0
 11 34  1  0  0  0
 12 15  1  0  0  0
 12 35  1  0  0  0
 13 17  1  0  0  0
 13 36  1  0  0  0
 14 19  1  0  0  0
 14 29  1  0  0  0
 15 18  1  0  0  0
 15 30  1  0  0  0
 16 29  1  0  0  0
 16 39  1  0  0  0
 17 30  1  0  0  0
 17 40  1  0  0  0
 18 26  1  0  0  0
 19 37  1  0  0  0
 20 21  1  0  0  0
 20 22  1  0  0  0
 21 27  1  0  0  0
 22  1  1  0  0  0
 22 38  1  0  0  0
  1 28  2  0  0  0
M  CHG  4  24   1  25   1  26   1  27   1
M  END
> <rmsd>
0.516777098

$$$$
ZINC72399347


 40 42  0  0  0  0  0  0  0  0999 V2000
    1.9657    3.7151   -3.0662 C   0  0  0  0  0
    1.9297    3.7955    0.2070 C   0  0  0  0  0
    1.5009    2.7448   -0.8285 C   0  0  0  0  0
    1.1483    3.6878    1.5195 C   0  0  0  0  0
    4.5293   -2.3772    0.7522 C   0  0  0  0  0
    1.5523    1.3148   -0.2575 C   0  0  0  0  0
    1.1500    2.2528    2.0619 C   0  0  0  0  0
    4.7187   -2.7743   -0.7182 C   0  0  0  0  0
    4.1712   -0.8969    0.9124 C   0  0  0  0  0
    0.7249    1.1965    1.0285 C   0  0  0  0  0
    0.1668   -0.4529    5.9422 C   0  0  0  0  0
    1.3009    0.1332    6.7953 C   0  0  0  0  0
   -0.3285    0.5447    4.8897 C   0  0  0  0  0
    3.6159   -2.1934   -1.6204 C   0  0  0  0  0
    2.3676    0.8065    5.9137 C   0  0  0  0  0
    3.0955   -0.4563   -0.0843 C   0  0  0  0  0
    0.8428    1.1727    4.1276 C   0  0  0  0  0
    3.4349    1.5349    6.7225 C   0  0  0  0  0
    3.8829   -2.4147   -3.1052 C   0  0  0  0  0
    4.3896    4.0787   -3.7417 C   0  0  0  0  0
    4.4527    5.4966   -3.1810 C   0  0  0  0  0
    2.9846    3.6729   -4.1997 C   0  0  0  0  0
    2.2983    2.8651   -2.0273 N   0  0  0  0  0
   -0.2520    4.1512    1.2950 N   0  0  0  0  0
    3.4427   -3.2076    1.3453 N   0  0  0  0  0
    4.4292    2.1088    5.7918 N   0  0  0  0  0
    5.8368    5.7727   -2.7221 N   0  0  0  0  0
    0.9805    4.4498   -3.0953 O   0  0  0  0  0
    3.4928   -0.7803   -1.4165 O   0  0  0  0  0
    1.7626    1.7699    5.0416 O   0  0  0  0  0
    6.0011   -2.2947   -1.1292 O   0  0  0  0  0
    5.3610   -0.1329    0.6897 O   0  0  0  0  0
   -0.6546    1.3337    0.6980 O   0  0  0  0  0
    0.6367   -1.6169    5.2661 O   0  0  0  0  0
    0.7326    1.0741    7.7041 O   0  0  0  0  0
   -1.0908    1.5703    5.5269 O   0  0  0  0  0
    2.8118   -1.8567   -3.8447 O   0  0  0  0  0
    2.5669    4.5359   -5.2444 O   0  0  0  0  0
    2.8962    0.9482    0.0534 O   0  0  0  0  0
    0.3296    2.1450    3.2215 O   0  0  0  0  0
  1 23  1  0  0  0
  2  3  1  0  0  0
  2  4  1  0  0  0
  3  6  1  0  0  0
  3 23  1  0  0  0
  4  7  1  0  0  0
  4 24  1  0  0  0
  5  8  1  0  0  0
  5  9  1  0  0  0
  5 25  1  0  0  0
  6 10  1  0  0  0
  6 39  1  0  0  0
  7 10  1  0  0  0
  7 40  1  0  0  0
  8 14  1  0  0  0
  8 31  1  0  0  0
  9 16  1  0  0  0
  9 32  1  0  0  0
 10 33  1  0  0  0
 11 12  1  0  0  0
 11 13  1  0  0  0
 11 34  1  0  0  0
 12 15  1  0  0  0
 12 35  1  0  0  0
 13 17  1  0  0  0
 13 36  1  0  0  0
 14 19  1  0  0  0
 14 29  1  0  0  0
 15 18  1  0  0  0
 15 30  1  0  0  0
 16 29  1  0  0  0
 16 39  1  0  0  0
 17 30  1  0  0  0
 17 40  1  0  0  0
 18 26  1  0  0  0
 19 37  1  0  0  0
 20 21  1  0  0  0
 20 22  1  0  0  0
 21 27  1  0  0  0
 22  1  1  0  0  0
 22 38  1  0  0  0
  1 28  2  0  0  0
M  CHG  4  24   1  25   1  26   1  27   1
M  END
> <rmsd>
0.517032862

$$$$
ZINC77312540


 41 43  0  0  0  0  0  0  0  0999 V2000
    4.9086    7.8886    0.2436 C   0  0  0  0  0
    5.1632    6.7145   -0.3594 C   0  0  0  0  0
   -1.5701    0.5197    1.5832 C   0  0  0  0  0
    3.5273    8.3122    0.6405 C   0  0  0  0  0
    1.1219    2.3550    2.0698 C   0  0  0  0  0
    3.5768   -2.2153   -1.6061 C   0  0  0  0  0
    0.7543    1.2387    1.0749 C   0  0  0  0  0
    2.4652    7.3690    0.0819 C   0  0  0  0  0
    1.1559    3.7576    1.4553 C   0  0  0  0  0
    4.5509   -2.3985    0.7252 C   0  0  0  0  0
    1.5782    1.3168   -0.2251 C   0  0  0  0  0
    1.9942    3.7855    0.1726 C   0  0  0  0  0
    4.1978   -0.9163    0.9059 C   0  0  0  0  0
    1.5909    2.7176   -0.8533 C   0  0  0  0  0
    2.9698    5.9247    0.0939 C   0  0  0  0  0
    3.1104   -0.4650   -0.0784 C   0  0  0  0  0
    4.7162   -2.7958   -0.7602 C   0  0  0  0  0
    6.0692   -2.3276   -1.3190 C   0  0  0  0  0
    3.2090   -2.9241    2.7728 C   0  0  0  0  0
    6.5345    6.3162   -0.8030 C   0  0  0  0  0
   -3.4668    2.1429    1.1018 C   0  0  0  0  0
    8.2194    4.6391   -0.4683 C   0  0  0  0  0
   -3.4254    2.7808    2.4876 C   0  0  0  0  0
    8.5179    3.3428    0.2625 C   0  0  0  0  0
   -3.0058    0.6815    1.0963 C   0  0  0  0  0
   -0.6643    1.2168    0.8017 N   0  0  0  0  0
    6.8793    5.1081   -0.1094 N   0  0  0  0  0
    2.1564    7.7660   -1.3272 N   0  0  0  0  0
   -0.2357    4.2103    1.1753 N   0  0  0  0  0
   -3.8397    4.2016    2.3772 N   0  0  0  0  0
    3.4474   -3.2088    1.3348 N   0  0  0  0  0
   -1.2841   -0.1461    2.5761 O   0  0  0  0  0
    4.1928    5.7696   -0.6378 O   0  0  0  0  0
    3.4655   -0.8043   -1.4198 O   0  0  0  0  0
    5.3679   -0.1229    0.6981 O   0  0  0  0  0
    0.3065    3.0195   -1.3924 O   0  0  0  0  0
    4.6938   -4.2199   -0.8907 O   0  0  0  0  0
    9.8054    2.8728   -0.1161 O   0  0  0  0  0
   -3.8731   -0.0845    1.9160 O   0  0  0  0  0
    2.9282    0.9426    0.0542 O   0  0  0  0  0
    1.9538    5.0743   -0.4334 O   0  0  0  0  0
  2 33  1  0  0  0
  3 26  1  0  0  0
  4  1  1  0  0  0
  4  8  1  0  0  0
  5  7  1  0  0  0
  5  9  1  0  0  0
  6 17  1  0  0  0
  6 34  1  0  0  0
  7 11  1  0  0  0
  7 26  1  0  0  0
  8 15  1  0  0  0
  8 28  1  0  0  0
  9 12  1  0  0  0
  9 29  1  0  0  0
 10 13  1  0  0  0
 10 17  1  0  0  0
 10 31  1  0  0  0
 11 14  1  0  0  0
 11 40  1  0  0  0
 12 14  1  0  0  0
 12 41  1  0  0  0
 13 16  1  0  0  0
 13 35  1  0  0  0
 14 36  1  0  0  0
 15 33  1  0  0  0
 15 41  1  0  0  0
 16 34  1  0  0  0
 16 40  1  0  0  0
 17 18  1  0  0  0
 17 37  1  0  0  0
 19 31  1  0  0  0
 20  2  1  0  0  0
 20 27  1  0  0  0
 21 23  1  0  0  0
 21 25  1  0  0  0
 22 24  1  0  0  0
 22 27  1  0  0  0
 23 30  1  0  0  0
 24 38  1  0  0  0
 25  3  1  0  0  0
 25 39  1  0  0  0
  1  2  2  0  0  0
  3 32  2  0  0  0
M  CHG  4  28   1  29   1  30   1  31   1
M  END
> <rmsd>
0.528532982

$$$$
ZINC77291604


 47 49  0  0  0  0  0  0  0  0999 V2000
   -1.6498    0.5323    1.4644 C   0  0  0  0  0
    2.2856    9.5927   -0.6302 C   0  0  0  0  0
    1.0638    2.3137    2.0502 C   0  0  0  0  0
    0.6999    1.2176    1.0319 C   0  0  0  0  0
    1.1143    3.7337    1.4672 C   0  0  0  0  0
    4.5317   -2.3790    0.7503 C   0  0  0  0  0
    1.5502    1.3147   -0.2443 C   0  0  0  0  0
    1.9325    3.8136    0.1740 C   0  0  0  0  0
    4.7167   -2.7734   -0.7215 C   0  0  0  0  0
    4.1740   -0.8991    0.9142 C   0  0  0  0  0
    1.5238    2.7318   -0.8349 C   0  0  0  0  0
    6.3464    5.8313    0.1635 C   0  0  0  0  0
    5.7338    7.0842    0.7979 C   0  0  0  0  0
    5.5327    4.5763    0.4868 C   0  0  0  0  0
    3.6113   -2.1908   -1.6194 C   0  0  0  0  0
    4.2450    7.1783    0.4308 C   0  0  0  0  0
    3.0954   -0.4566   -0.0784 C   0  0  0  0  0
    4.0621    4.8146    0.1357 C   0  0  0  0  0
    3.5337    8.3378    1.1180 C   0  0  0  0  0
    3.8741   -2.4093   -3.1053 C   0  0  0  0  0
   -3.5030    2.1999    0.9659 C   0  0  0  0  0
    0.3694    8.4204   -1.8209 C   0  0  0  0  0
   -3.4871    2.8096    2.3649 C   0  0  0  0  0
    1.2511    7.8639   -2.9352 C   0  0  0  0  0
   -3.0688    0.7304    0.9432 C   0  0  0  0  0
    0.8941    9.7364   -1.2366 C   0  0  0  0  0
   -0.7111    1.2275    0.7211 N   0  0  0  0  0
    2.3400    8.6628    0.4104 N   0  0  0  0  0
   -0.2715    4.2134    1.2067 N   0  0  0  0  0
    3.4469   -3.2106    1.3449 N   0  0  0  0  0
   -3.8724    4.2397    2.2722 N   0  0  0  0  0
    0.6872    6.5709   -3.3962 N   0  0  0  0  0
   -1.4024   -0.1580    2.4510 O   0  0  0  0  0
    3.2525   10.2273   -1.0465 O   0  0  0  0  0
    3.4888   -0.7781   -1.4124 O   0  0  0  0  0
    3.5560    5.9750    0.8020 O   0  0  0  0  0
    5.9979   -2.2928   -1.1353 O   0  0  0  0  0
    5.3632   -0.1346    0.6897 O   0  0  0  0  0
    2.3773    2.8073   -1.9747 O   0  0  0  0  0
    7.6978    5.6838    0.5816 O   0  0  0  0  0
    5.8941    7.0232    2.2150 O   0  0  0  0  0
    5.6441    4.2807    1.8806 O   0  0  0  0  0
    2.8008   -1.8499   -3.8407 O   0  0  0  0  0
   -3.9713   -0.0351    1.7243 O   0  0  0  0  0
    0.9211   10.7216   -2.2560 O   0  0  0  0  0
    2.8964    0.9477    0.0625 O   0  0  0  0  0
    3.3166    3.6630    0.5005 O   0  0  0  0  0
  1 27  1  0  0  0
  2 28  1  0  0  0
  3  4  1  0  0  0
  3  5  1  0  0  0
  4  7  1  0  0  0
  4 27  1  0  0  0
  5  8  1  0  0  0
  5 29  1  0  0  0
  6  9  1  0  0  0
  6 10  1  0  0  0
  6 30  1  0  0  0
  7 11  1  0  0  0
  7 46  1  0  0  0
  8 11  1  0  0  0
  8 47  1  0  0  0
  9 15  1  0  0  0
  9 37  1  0  0  0
 10 17  1  0  0  0
 10 38  1  0  0  0
 11 39  1  0  0  0
 12 13  1  0  0  0
 12 14  1  0  0  0
 12 40  1  0  0  0
 13 16  1  0  0  0
 13 41  1  0  0  0
 14 18  1  0  0  0
 14 42  1  0  0  0
 15 20  1  0  0  0
 15 35  1  0  0  0
 16 19  1  0  0  0
 16 36  1  0  0  0
 17 35  1  0  0  0
 17 46  1  0  0  0
 18 36  1  0  0  0
 18 47  1  0  0  0
 19 28  1  0  0  0
 20 43  1  0  0  0
 21 23  1  0  0  0
 21 25  1  0  0  0
 22 24  1  0  0  0
 22 26  1  0  0  0
 23 31  1  0  0  0
 24 32  1  0  0  0
 25  1  1  0  0  0
 25 44  1  0  0  0
 26  2  1  0  0  0
 26 45  1  0  0  0
  1 33  2  0  0  0
  2 34  2  0  0  0
M  CHG  4  29   1  30   1  31   1  32   1
M  END
> <rmsd>
0.509737313

$$$$
ZINC77291590


 47 49  0  0  0  0  0  0  0  0999 V2000
   -1.4258    0.0828    0.5072 C   0  0  0  0  0
   -0.9200    4.9150    2.2076 C   0  0  0  0  0
    1.0965    2.3315    2.0528 C   0  0  0  0  0
    0.7126    1.2297    1.0491 C   0  0  0  0  0
    1.1337    3.7400    1.4455 C   0  0  0  0  0
    4.5326   -2.3795    0.7493 C   0  0  0  0  0
    1.5426    1.3091   -0.2393 C   0  0  0  0  0
    1.9765    3.7783    0.1611 C   0  0  0  0  0
    4.7161   -2.7724   -0.7229 C   0  0  0  0  0
    4.1737   -0.9001    0.9152 C   0  0  0  0  0
    1.5395    2.7162   -0.8521 C   0  0  0  0  0
    3.8221    8.2548   -0.1219 C   0  0  0  0  0
    5.2123    7.6308   -0.2832 C   0  0  0  0  0
    2.7179    7.3115   -0.6041 C   0  0  0  0  0
    3.6091   -2.1900   -1.6190 C   0  0  0  0  0
    5.2360    6.2384    0.3654 C   0  0  0  0  0
    3.0934   -0.4577   -0.0758 C   0  0  0  0  0
    2.8842    5.9443    0.0635 C   0  0  0  0  0
    6.5523    5.5019    0.1481 C   0  0  0  0  0
    3.8702   -2.4069   -3.1054 C   0  0  0  0  0
   -3.5806    1.0331    1.4654 C   0  0  0  0  0
   -2.2101    6.3078    0.5165 C   0  0  0  0  0
   -3.5210    0.1910    2.7368 C   0  0  0  0  0
   -1.4388    7.5907    0.8133 C   0  0  0  0  0
   -2.9051    0.3618    0.2648 C   0  0  0  0  0
   -2.2935    5.3619    1.7194 C   0  0  0  0  0
   -0.7026    1.2364    0.7653 N   0  0  0  0  0
   -0.2059    4.2427    1.2316 N   0  0  0  0  0
    3.4493   -3.2127    1.3446 N   0  0  0  0  0
    6.4895    4.1981    0.8416 N   0  0  0  0  0
   -4.1540    0.9467    3.8460 N   0  0  0  0  0
   -1.3724    8.4103   -0.4221 N   0  0  0  0  0
   -0.9601   -1.0547    0.4895 O   0  0  0  0  0
   -0.5143    5.1594    3.3419 O   0  0  0  0  0
    3.4854   -0.7776   -1.4105 O   0  0  0  0  0
    4.1916    5.4130   -0.1718 O   0  0  0  0  0
    5.9964   -2.2902   -1.1380 O   0  0  0  0  0
    5.3618   -0.1343    0.6897 O   0  0  0  0  0
    2.4330    2.7500   -1.9663 O   0  0  0  0  0
    3.7637    9.4996   -0.8072 O   0  0  0  0  0
    5.5311    7.5387   -1.6715 O   0  0  0  0  0
    2.8055    7.1590   -2.0223 O   0  0  0  0  0
    2.7954   -1.8478   -3.8389 O   0  0  0  0  0
   -3.5745   -0.8536   -0.0278 O   0  0  0  0  0
   -2.9839    6.0094    2.7752 O   0  0  0  0  0
    2.8932    0.9463    0.0667 O   0  0  0  0  0
    1.8895    5.0682   -0.4436 O   0  0  0  0  0
  1 27  1  0  0  0
  2 28  1  0  0  0
  3  4  1  0  0  0
  3  5  1  0  0  0
  4  7  1  0  0  0
  4 27  1  0  0  0
  5  8  1  0  0  0
  5 28  1  0  0  0
  6  9  1  0  0  0
  6 10  1  0  0  0
  6 29  1  0  0  0
  7 11  1  0  0  0
  7 46  1  0  0  0
  8 11  1  0  0  0
  8 47  1  0  0  0
  9 15  1  0  0  0
  9 37  1  0  0  0
 10 17  1  0  0  0
 10 38  1  0  0  0
 11 39  1  0  0  0
 12 13  1  0  0  0
 12 14  1  0  0  0
 12 40  1  0  0  0
 13 16  1  0  0  0
 13 41  1  0  0  0
 14 18  1  0  0  0
 14 42  1  0  0  0
 15 20  1  0  0  0
 15 35  1  0  0  0
 16 19  1  0  0  0
 16 36  1  0  0  0
 17 35  1  0  0  0
 17 46  1  0  0  0
 18 36  1  0  0  0
 18 47  1  0  0  0
 19 30  1  0  0  0
 20 43  1  0  0  0
 21 23  1  0  0  0
 21 25  1  0  0  0
 22 24  1  0  0  0
 22 26  1  0  0  0
 23 31  1  0  0  0
 24 32  1  0  0  0
 25  1  1  0  0  0
 25 44  1  0  0  0
 26  2  1  0  0  0
 26 45  1  0  0  0
  1 33  2  0  0  0
  2 34  2  0  0  0
M  CHG  4  29   1  30   1  31   1  32   1
M  END
> <rmsd>
0.514447093

$$$$
ZINC77291611


 47 49  0  0  0  0  0  0  0  0999 V2000
   -1.6506    0.5995    1.5270 C   0  0  0  0  0
    7.9730    5.0691    0.2986 C   0  0  0  0  0
    1.1102    2.3237    2.0557 C   0  0  0  0  0
    0.7077    1.2304    1.0475 C   0  0  0  0  0
    1.1734    3.7327    1.4572 C   0  0  0  0  0
    4.5321   -2.3784    0.7495 C   0  0  0  0  0
    1.5408    1.3089   -0.2402 C   0  0  0  0  0
    1.9882    3.7749    0.1588 C   0  0  0  0  0
    4.7164   -2.7711   -0.7227 C   0  0  0  0  0
    4.1723   -0.8991    0.9152 C   0  0  0  0  0
    1.5352    2.7168   -0.8520 C   0  0  0  0  0
    3.4409    8.3373    0.5158 C   0  0  0  0  0
    4.7439    8.1471   -0.2675 C   0  0  0  0  0
    2.3516    7.3697    0.0478 C   0  0  0  0  0
    3.6094   -2.1894   -1.6191 C   0  0  0  0  0
    5.1539    6.6667   -0.2438 C   0  0  0  0  0
    3.0922   -0.4573   -0.0762 C   0  0  0  0  0
    2.8979    5.9399    0.0569 C   0  0  0  0  0
    6.3813    6.3743   -1.0984 C   0  0  0  0  0
    3.8710   -2.4061   -3.1054 C   0  0  0  0  0
   -3.4789    2.2931    1.0237 C   0  0  0  0  0
    7.2843    2.7426    1.0586 C   0  0  0  0  0
   -3.4302    2.9289    2.4101 C   0  0  0  0  0
    6.6421    3.2314    2.3539 C   0  0  0  0  0
   -3.0734    0.8153    1.0228 C   0  0  0  0  0
    8.4285    3.6407    0.5762 C   0  0  0  0  0
   -0.7067    1.2619    0.7574 N   0  0  0  0  0
    6.9821    5.1507   -0.6823 N   0  0  0  0  0
   -0.2168    4.2133    1.1975 N   0  0  0  0  0
    3.4491   -3.2121    1.3445 N   0  0  0  0  0
   -3.7892    4.3642    2.2955 N   0  0  0  0  0
    5.5197    2.3271    2.7069 N   0  0  0  0  0
   -1.4019   -0.0767    2.5229 O   0  0  0  0  0
    8.4317    6.0347    0.9054 O   0  0  0  0  0
    3.4849   -0.7771   -1.4107 O   0  0  0  0  0
    4.0874    5.8392   -0.7317 O   0  0  0  0  0
    5.9965   -2.2883   -1.1373 O   0  0  0  0  0
    5.3601   -0.1327    0.6902 O   0  0  0  0  0
    2.4180    2.7491   -1.9748 O   0  0  0  0  0
    3.0023    9.6862    0.4128 O   0  0  0  0  0
    4.5565    8.5901   -1.6115 O   0  0  0  0  0
    1.9461    7.7126   -1.2789 O   0  0  0  0  0
    2.7963   -1.8476   -3.8393 O   0  0  0  0  0
   -3.9786    0.0825    1.8317 O   0  0  0  0  0
    9.4561    3.6527    1.5533 O   0  0  0  0  0
    2.8912    0.9465    0.0662 O   0  0  0  0  0
    1.8938    5.0679   -0.4385 O   0  0  0  0  0
  1 27  1  0  0  0
  2 28  1  0  0  0
  3  4  1  0  0  0
  3  5  1  0  0  0
  4  7  1  0  0  0
  4 27  1  0  0  0
  5  8  1  0  0  0
  5 29  1  0  0  0
  6  9  1  0  0  0
  6 10  1  0  0  0
  6 30  1  0  0  0
  7 11  1  0  0  0
  7 46  1  0  0  0
  8 11  1  0  0  0
  8 47  1  0  0  0
  9 15  1  0  0  0
  9 37  1  0  0  0
 10 17  1  0  0  0
 10 38  1  0  0  0
 11 39  1  0  0  0
 12 13  1  0  0  0
 12 14  1  0  0  0
 12 40  1  0  0  0
 13 16  1  0  0  0
 13 41  1  0  0  0
 14 18  1  0  0  0
 14 42  1  0  0  0
 15 20  1  0  0  0
 15 35  1  0  0  0
 16 19  1  0  0  0
 16 36  1  0  0  0
 17 35  1  0  0  0
 17 46  1  0  0  0
 18 36  1  0  0  0
 18 47  1  0  0  0
 19 28  1  0  0  0
 20 43  1  0  0  0
 21 23  1  0  0  0
 21 25  1  0  0  0
 22 24  1  0  0  0
 22 26  1  0  0  0
 23 31  1  0  0  0
 24 32  1  0  0  0
 25  1  1  0  0  0
 25 44  1  0  0  0
 26  2  1  0  0  0
 26 45  1  0  0  0
  1 33  2  0  0  0
  2 34  2  0  0  0
M  CHG  4  29   1  30   1  31   1  32   1
M  END
> <rmsd>
0.51755017

$$$$
ZINC77291611


 47 49  0  0  0  0  0  0  0  0999 V2000
   -1.6507    0.5990    1.5263 C   0  0  0  0  0
    7.3643    4.6431    2.2809 C   0  0  0  0  0
    1.1101    2.3231    2.0553 C   0  0  0  0  0
    0.7077    1.2298    1.0471 C   0  0  0  0  0
    1.1734    3.7321    1.4569 C   0  0  0  0  0
    4.5320   -2.3790    0.7493 C   0  0  0  0  0
    1.5409    1.3084   -0.2406 C   0  0  0  0  0
    1.9883    3.7743    0.1586 C   0  0  0  0  0
    4.7165   -2.7717   -0.7228 C   0  0  0  0  0
    4.1722   -0.8997    0.9151 C   0  0  0  0  0
    1.5355    2.7163   -0.8523 C   0  0  0  0  0
    3.8371    8.2492   -0.1325 C   0  0  0  0  0
    5.2235    7.6236   -0.3182 C   0  0  0  0  0
    2.7238    7.3100   -0.6017 C   0  0  0  0  0
    3.6095   -2.1899   -1.6193 C   0  0  0  0  0
    5.2547    6.2280    0.3234 C   0  0  0  0  0
    3.0922   -0.4579   -0.0764 C   0  0  0  0  0
    2.8981    5.9394    0.0569 C   0  0  0  0  0
    6.5663    5.4904    0.0821 C   0  0  0  0  0
    3.8714   -2.4066   -3.1056 C   0  0  0  0  0
   -3.4789    2.2927    1.0228 C   0  0  0  0  0
    5.9716    2.8815    3.4730 C   0  0  0  0  0
   -3.4303    2.9284    2.4093 C   0  0  0  0  0
    5.1309    3.8996    4.2384 C   0  0  0  0  0
   -3.0734    0.8149    1.0220 C   0  0  0  0  0
    7.3806    3.3870    3.1450 C   0  0  0  0  0
   -0.7067    1.2614    0.7568 N   0  0  0  0  0
    6.7278    4.4581    1.0515 N   0  0  0  0  0
   -0.2167    4.2128    1.1970 N   0  0  0  0  0
    3.4489   -3.2127    1.3442 N   0  0  0  0  0
   -3.7893    4.3637    2.2947 N   0  0  0  0  0
    3.7763    3.3363    4.4617 N   0  0  0  0  0
   -1.4021   -0.0772    2.5222 O   0  0  0  0  0
    7.8508    5.7069    2.6586 O   0  0  0  0  0
    3.4851   -0.7776   -1.4109 O   0  0  0  0  0
    4.2007    5.4070   -0.2013 O   0  0  0  0  0
    5.9966   -2.2889   -1.1372 O   0  0  0  0  0
    5.3601   -0.1334    0.6902 O   0  0  0  0  0
    2.4183    2.7486   -1.9750 O   0  0  0  0  0
    3.7702    9.4972   -0.8109 O   0  0  0  0  0
    5.5204    7.5375   -1.7118 O   0  0  0  0  0
    2.7891    7.1640   -2.0219 O   0  0  0  0  0
    2.7967   -1.8481   -3.8396 O   0  0  0  0  0
   -3.9787    0.0821    1.8307 O   0  0  0  0  0
    8.0742    3.6522    4.3530 O   0  0  0  0  0
    2.8913    0.9460    0.0660 O   0  0  0  0  0
    1.8941    5.0674   -0.4387 O   0  0  0  0  0
  1 27  1  0  0  0
  2 28  1  0  0  0
  3  4  1  0  0  0
  3  5  1  0  0  0
  4  7  1  0  0  0
  4 27  1  0  0  0
  5  8  1  0  0  0
  5 29  1  0  0  0
  6  9  1  0  0  0
  6 10  1  0  0  0
  6 30  1  0  0  0
  7 11  1  0  0  0
  7 46  1  0  0  0
  8 11  1  0  0  0
  8 47  1  0  0  0
  9 15  1  0  0  0
  9 37  1  0  0  0
 10 17  1  0  0  0
 10 38  1  0  0  0
 11 39  1  0  0  0
 12 13  1  0  0  0
 12 14  1  0  0  0
 12 40  1  0  0  0
 13 16  1  0  0  0
 13 41  1  0  0  0
 14 18  1  0  0  0
 14 42  1  0  0  0
 15 20  1  0  0  0
 15 35  1  0  0  0
 16 19  1  0  0  0
 16 36  1  0  0  0
 17 35  1  0  0  0
 17 46  1  0  0  0
 18 36  1  0  0  0
 18 47  1  0  0  0
 19 28  1  0  0  0
 20 43  1  0  0  0
 21 23  1  0  0  0
 21 25  1  0  0  0
 22 24  1  0  0  0
 22 26  1  0  0  0
 23 31  1  0  0  0
 24 32  1  0  0  0
 25  1  1  0  0  0
 25 44  1  0  0  0
 26  2  1  0  0  0
 26 45  1  0  0  0
  1 33  2  0  0  0
  2 34  2  0  0  0
M  CHG  4  29   1  30   1  31   1  32   1
M  END
> <rmsd>
0.517810106

$$$$
ZINC77291604


 47 49  0  0  0  0  0  0  0  0999 V2000
   -1.6495    0.5322    1.4648 C   0  0  0  0  0
    1.0977    8.0858    0.6827 C   0  0  0  0  0
    1.0640    2.3136    2.0505 C   0  0  0  0  0
    0.7002    1.2175    1.0323 C   0  0  0  0  0
    1.1145    3.7335    1.4676 C   0  0  0  0  0
    4.5319   -2.3791    0.7506 C   0  0  0  0  0
    1.5504    1.3146   -0.2439 C   0  0  0  0  0
    1.9328    3.8135    0.1743 C   0  0  0  0  0
    4.7170   -2.7736   -0.7211 C   0  0  0  0  0
    4.1742   -0.8992    0.9146 C   0  0  0  0  0
    1.5241    2.7317   -0.8345 C   0  0  0  0  0
    6.3467    5.8312    0.1639 C   0  0  0  0  0
    5.7340    7.0841    0.7982 C   0  0  0  0  0
    5.5330    4.5762    0.4872 C   0  0  0  0  0
    3.6116   -2.1909   -1.6190 C   0  0  0  0  0
    4.2452    7.1782    0.4312 C   0  0  0  0  0
    3.0956   -0.4567   -0.0781 C   0  0  0  0  0
    4.0624    4.8145    0.1361 C   0  0  0  0  0
    3.5340    8.3377    1.1184 C   0  0  0  0  0
    3.8743   -2.4094   -3.1050 C   0  0  0  0  0
   -3.5028    2.1998    0.9663 C   0  0  0  0  0
   -0.2171   10.1378   -0.0419 C   0  0  0  0  0
   -3.4868    2.8095    2.3652 C   0  0  0  0  0
   -0.5760   10.5520    1.3824 C   0  0  0  0  0
   -3.0685    0.7303    0.9436 C   0  0  0  0  0
   -0.0223    8.6259   -0.1997 C   0  0  0  0  0
   -0.7108    1.2274    0.7215 N   0  0  0  0  0
    2.3402    8.6627    0.4108 N   0  0  0  0  0
   -0.2713    4.2133    1.2071 N   0  0  0  0  0
    3.4471   -3.2107    1.3453 N   0  0  0  0  0
   -3.8721    4.2396    2.2726 N   0  0  0  0  0
   -0.6928   12.0301    1.4400 N   0  0  0  0  0
   -1.4021   -0.1581    2.4513 O   0  0  0  0  0
    0.8988    7.2420    1.5542 O   0  0  0  0  0
    3.4891   -0.7782   -1.4120 O   0  0  0  0  0
    3.5562    5.9749    0.8024 O   0  0  0  0  0
    5.9982   -2.2929   -1.1349 O   0  0  0  0  0
    5.3634   -0.1348    0.6901 O   0  0  0  0  0
    2.3775    2.8071   -1.9743 O   0  0  0  0  0
    7.6980    5.6836    0.5820 O   0  0  0  0  0
    5.8944    7.0231    2.2154 O   0  0  0  0  0
    5.6444    4.2806    1.8810 O   0  0  0  0  0
    2.8011   -1.8500   -3.8403 O   0  0  0  0  0
   -3.9711   -0.0352    1.7246 O   0  0  0  0  0
   -1.2356    7.9636    0.1166 O   0  0  0  0  0
    2.8967    0.9476    0.0629 O   0  0  0  0  0
    3.3168    3.6628    0.5009 O   0  0  0  0  0
  1 27  1  0  0  0
  2 28  1  0  0  0
  3  4  1  0  0  0
  3  5  1  0  0  0
  4  7  1  0  0  0
  4 27  1  0  0  0
  5  8  1  0  0  0
  5 29  1  0  0  0
  6  9  1  0  0  0
  6 10  1  0  0  0
  6 30  1  0  0  0
  7 11  1  0  0  0
  7 46  1  0  0  0
  8 11  1  0  0  0
  8 47  1  0  0  0
  9 15  1  0  0  0
  9 37  1  0  0  0
 10 17  1  0  0  0
 10 38  1  0  0  0
 11 39  1  0  0  0
 12 13  1  0  0  0
 12 14  1  0  0  0
 12 40  1  0  0  0
 13 16  1  0  0  0
 13 41  1  0  0  0
 14 18  1  0  0  0
 14 42  1  0  0  0
 15 20  1  0  0  0
 15 35  1  0  0  0
 16 19  1  0  0  0
 16 36  1  0  0  0
 17 35  1  0  0  0
 17 46  1  0  0  0
 18 36  1  0  0  0
 18 47  1  0  0  0
 19 28  1  0  0  0
 20 43  1  0  0  0
 21 23  1  0  0  0
 21 25  1  0  0  0
 22 24  1  0  0  0
 22 26  1  0  0  0
 23 31  1  0  0  0
 24 32  1  0  0  0
 25  1  1  0  0  0
 25 44  1  0  0  0
 26  2  1  0  0  0
 26 45  1  0  0  0
  1 33  2  0  0  0
  2 34  2  0  0  0
M  CHG  4  29   1  30   1  31   1  32   1
M  END
> <rmsd>
0.509737253

$$$$
ZINC77291590


 47 49  0  0  0  0  0  0  0  0999 V2000
   -1.6317    0.5657    1.5442 C   0  0  0  0  0
   -0.5306    5.5837    1.3393 C   0  0  0  0  0
    1.0964    2.3318    2.0525 C   0  0  0  0  0
    0.7125    1.2299    1.0489 C   0  0  0  0  0
    1.1338    3.7402    1.4451 C   0  0  0  0  0
    4.5323   -2.3795    0.7495 C   0  0  0  0  0
    1.5426    1.3092   -0.2395 C   0  0  0  0  0
    1.9766    3.7784    0.1607 C   0  0  0  0  0
    4.7160   -2.7724   -0.7227 C   0  0  0  0  0
    4.1735   -0.9001    0.9153 C   0  0  0  0  0
    1.5396    2.7162   -0.8524 C   0  0  0  0  0
    4.3624    7.7462   -1.2851 C   0  0  0  0  0
    5.3660    6.8360   -2.0008 C   0  0  0  0  0
    2.9931    7.0781   -1.1419 C   0  0  0  0  0
    3.6090   -2.1900   -1.6189 C   0  0  0  0  0
    5.3971    5.4591   -1.3202 C   0  0  0  0  0
    3.0933   -0.4576   -0.0758 C   0  0  0  0  0
    3.1616    5.6943   -0.5104 C   0  0  0  0  0
    6.2882    4.4566   -2.0435 C   0  0  0  0  0
    3.8701   -2.4071   -3.1053 C   0  0  0  0  0
   -3.7454    1.9729    1.6732 C   0  0  0  0  0
   -2.3990    5.4242   -0.3775 C   0  0  0  0  0
   -3.8466    1.8873    3.1936 C   0  0  0  0  0
   -1.6150    6.1505   -1.4670 C   0  0  0  0  0
   -3.0598    0.7549    1.0448 C   0  0  0  0  0
   -2.0011    5.8520    1.0391 C   0  0  0  0  0
   -0.7027    1.2367    0.7650 N   0  0  0  0  0
   -0.2059    4.2430    1.2311 N   0  0  0  0  0
    3.4490   -3.2125    1.3448 N   0  0  0  0  0
    6.2830    3.1842   -1.2915 N   0  0  0  0  0
   -4.4762    3.1298    3.7057 N   0  0  0  0  0
   -2.0366    5.6316   -2.7919 N   0  0  0  0  0
   -1.3679   -0.0983    2.5445 O   0  0  0  0  0
    0.2573    6.4839    1.6222 O   0  0  0  0  0
    3.4853   -0.7777   -1.4105 O   0  0  0  0  0
    4.0788    4.8942   -1.2626 O   0  0  0  0  0
    5.9963   -2.2904   -1.1378 O   0  0  0  0  0
    5.3617   -0.1343    0.6898 O   0  0  0  0  0
    2.4331    2.7500   -1.9665 O   0  0  0  0  0
    4.2543    8.9875   -1.9707 O   0  0  0  0  0
    4.9912    6.7052   -3.3720 O   0  0  0  0  0
    2.3921    6.9397   -2.4311 O   0  0  0  0  0
    2.7953   -1.8480   -3.8388 O   0  0  0  0  0
   -3.8195   -0.4077    1.3310 O   0  0  0  0  0
   -2.2735    7.2339    1.2032 O   0  0  0  0  0
    2.8932    0.9463    0.0666 O   0  0  0  0  0
    1.8896    5.0683   -0.4440 O   0  0  0  0  0
  1 27  1  0  0  0
  2 28  1  0  0  0
  3  4  1  0  0  0
  3  5  1  0  0  0
  4  7  1  0  0  0
  4 27  1  0  0  0
  5  8  1  0  0  0
  5 28  1  0  0  0
  6  9  1  0  0  0
  6 10  1  0  0  0
  6 29  1  0  0  0
  7 11  1  0  0  0
  7 46  1  0  0  0
  8 11  1  0  0  0
  8 47  1  0  0  0
  9 15  1  0  0  0
  9 37  1  0  0  0
 10 17  1  0  0  0
 10 38  1  0  0  0
 11 39  1  0  0  0
 12 13  1  0  0  0
 12 14  1  0  0  0
 12 40  1  0  0  0
 13 16  1  0  0  0
 13 41  1  0  0  0
 14 18  1  0  0  0
 14 42  1  0  0  0
 15 20  1  0  0  0
 15 35  1  0  0  0
 16 19  1  0  0  0
 16 36  1  0  0  0
 17 35  1  0  0  0
 17 46  1  0  0  0
 18 36  1  0  0  0
 18 47  1  0  0  0
 19 30  1  0  0  0
 20 43  1  0  0  0
 21 23  1  0  0  0
 21 25  1  0  0  0
 22 24  1  0  0  0
 22 26  1  0  0  0
 23 31  1  0  0  0
 24 32  1  0  0  0
 25  1  1  0  0  0
 25 44  1  0  0  0
 26  2  1  0  0  0
 26 45  1  0  0  0
  1 33  2  0  0  0
  2 34  2  0  0  0
M  CHG  4  29   1  30   1  31   1  32   1
M  END
> <rmsd>
0.51443249

$$$$
ZINC77291611


 47 49  0  0  0  0  0  0  0  0999 V2000
   -1.6508    0.5997    1.5260 C   0  0  0  0  0
    6.6445    3.9025   -1.2111 C   0  0  0  0  0
    1.1102    2.3238    2.0550 C   0  0  0  0  0
    0.7077    1.2304    1.0468 C   0  0  0  0  0
    1.1735    3.7327    1.4565 C   0  0  0  0  0
    4.5318   -2.3786    0.7495 C   0  0  0  0  0
    1.5409    1.3089   -0.2408 C   0  0  0  0  0
    1.9885    3.7748    0.1582 C   0  0  0  0  0
    4.7163   -2.7715   -0.7226 C   0  0  0  0  0
    4.1721   -0.8993    0.9151 C   0  0  0  0  0
    1.5356    2.7167   -0.8526 C   0  0  0  0  0
    3.4415    8.3371    0.5151 C   0  0  0  0  0
    4.7446    8.1467   -0.2680 C   0  0  0  0  0
    2.3522    7.3696    0.0470 C   0  0  0  0  0
    3.6094   -2.1897   -1.6192 C   0  0  0  0  0
    5.1544    6.6664   -0.2442 C   0  0  0  0  0
    3.0921   -0.4575   -0.0764 C   0  0  0  0  0
    2.8983    5.9398    0.0563 C   0  0  0  0  0
    6.3820    6.3738   -1.0986 C   0  0  0  0  0
    3.8713   -2.4065   -3.1055 C   0  0  0  0  0
   -3.4789    2.2935    1.0224 C   0  0  0  0  0
    8.9593    2.9169   -0.8443 C   0  0  0  0  0
   -3.4303    2.9294    2.4088 C   0  0  0  0  0
    9.3386    2.9639   -2.3217 C   0  0  0  0  0
   -3.0734    0.8157    1.0217 C   0  0  0  0  0
    7.4529    2.7565   -0.6128 C   0  0  0  0  0
   -0.7067    1.2621    0.7565 N   0  0  0  0  0
    6.9826    5.1502   -0.6824 N   0  0  0  0  0
   -0.2166    4.2135    1.1965 N   0  0  0  0  0
    3.4487   -3.2122    1.3444 N   0  0  0  0  0
   -3.7892    4.3646    2.2941 N   0  0  0  0  0
   10.8035    3.1705   -2.4373 N   0  0  0  0  0
   -1.4022   -0.0764    2.5221 O   0  0  0  0  0
    5.7993    3.7240   -2.0856 O   0  0  0  0  0
    3.4851   -0.7774   -1.4109 O   0  0  0  0  0
    4.0879    5.8389   -0.7322 O   0  0  0  0  0
    5.9965   -2.2888   -1.1370 O   0  0  0  0  0
    5.3600   -0.1330    0.6902 O   0  0  0  0  0
    2.4184    2.7489   -1.9753 O   0  0  0  0  0
    3.0030    9.6861    0.4120 O   0  0  0  0  0
    4.5574    8.5897   -1.6121 O   0  0  0  0  0
    1.9468    7.7124   -1.2797 O   0  0  0  0  0
    2.7967   -1.8480   -3.8395 O   0  0  0  0  0
   -3.9788    0.0830    1.8305 O   0  0  0  0  0
    7.0223    1.5285   -1.1764 O   0  0  0  0  0
    2.8913    0.9464    0.0658 O   0  0  0  0  0
    1.8943    5.0678   -0.4392 O   0  0  0  0  0
  1 27  1  0  0  0
  2 28  1  0  0  0
  3  4  1  0  0  0
  3  5  1  0  0  0
  4  7  1  0  0  0
  4 27  1  0  0  0
  5  8  1  0  0  0
  5 29  1  0  0  0
  6  9  1  0  0  0
  6 10  1  0  0  0
  6 30  1  0  0  0
  7 11  1  0  0  0
  7 46  1  0  0  0
  8 11  1  0  0  0
  8 47  1  0  0  0
  9 15  1  0  0  0
  9 37  1  0  0  0
 10 17  1  0  0  0
 10 38  1  0  0  0
 11 39  1  0  0  0
 12 13  1  0  0  0
 12 14  1  0  0  0
 12 40  1  0  0  0
 13 16  1  0  0  0
 13 41  1  0  0  0
 14 18  1  0  0  0
 14 42  1  0  0  0
 15 20  1  0  0  0
 15 35  1  0  0  0
 16 19  1  0  0  0
 16 36  1  0  0  0
 17 35  1  0  0  0
 17 46  1  0  0  0
 18 36  1  0  0  0
 18 47  1  0  0  0
 19 28  1  0  0  0
 20 43  1  0  0  0
 21 23  1  0  0  0
 21 25  1  0  0  0
 22 24  1  0  0  0
 22 26  1  0  0  0
 23 31  1  0  0  0
 24 32  1  0  0  0
 25  1  1  0  0  0
 25 44  1  0  0  0
 26  2  1  0  0  0
 26 45  1  0  0  0
  1 33  2  0  0  0
  2 34  2  0  0  0
M  CHG  4  29   1  30   1  31   1  32   1
M  END
> <rmsd>
0.517748535

$$$$
ZINC77291590


 47 49  0  0  0  0  0  0  0  0999 V2000
   -1.4260    0.0830    0.5067 C   0  0  0  0  0
   -0.9204    4.9150    2.2077 C   0  0  0  0  0
    1.0961    2.3315    2.0529 C   0  0  0  0  0
    0.7123    1.2298    1.0490 C   0  0  0  0  0
    1.1334    3.7401    1.4458 C   0  0  0  0  0
    4.5324   -2.3793    0.7492 C   0  0  0  0  0
    1.5425    1.3093   -0.2393 C   0  0  0  0  0
    1.9764    3.7785    0.1614 C   0  0  0  0  0
    4.7161   -2.7720   -0.7231 C   0  0  0  0  0
    4.1734   -0.9000    0.9153 C   0  0  0  0  0
    1.5395    2.7165   -0.8519 C   0  0  0  0  0
    3.4157    8.3448    0.5207 C   0  0  0  0  0
    4.7313    8.1534   -0.2411 C   0  0  0  0  0
    2.3356    7.3733    0.0400 C   0  0  0  0  0
    3.6092   -2.1895   -1.6191 C   0  0  0  0  0
    5.1433    6.6739   -0.2040 C   0  0  0  0  0
    3.0933   -0.4574   -0.0758 C   0  0  0  0  0
    2.8840    5.9445    0.0642 C   0  0  0  0  0
    6.3846    6.3798   -1.0379 C   0  0  0  0  0
    3.8704   -2.4062   -3.1056 C   0  0  0  0  0
   -3.7299    0.3215    1.5553 C   0  0  0  0  0
   -2.2677    6.7594    1.0908 C   0  0  0  0  0
   -3.6239    1.6035    2.3764 C   0  0  0  0  0
   -1.7987    7.8438    2.0567 C   0  0  0  0  0
   -2.9053    0.3620    0.2641 C   0  0  0  0  0
   -2.2939    5.3619    1.7194 C   0  0  0  0  0
   -0.7028    1.2366    0.7651 N   0  0  0  0  0
   -0.2062    4.2428    1.2317 N   0  0  0  0  0
    3.4491   -3.2126    1.3443 N   0  0  0  0  0
    7.0009    5.1278   -0.5506 N   0  0  0  0  0
   -4.4930    1.4830    3.5731 N   0  0  0  0  0
   -1.7610    9.1435    1.3413 N   0  0  0  0  0
   -0.9603   -1.0545    0.4889 O   0  0  0  0  0
   -0.5148    5.1593    3.3422 O   0  0  0  0  0
    3.4855   -0.7772   -1.4105 O   0  0  0  0  0
    4.0860    5.8423   -0.7051 O   0  0  0  0  0
    5.9964   -2.2898   -1.1379 O   0  0  0  0  0
    5.3616   -0.1341    0.6900 O   0  0  0  0  0
    2.4331    2.7505   -1.9660 O   0  0  0  0  0
    2.9765    9.6925    0.4048 O   0  0  0  0  0
    4.5644    8.5900   -1.5898 O   0  0  0  0  0
    1.9505    7.7094   -1.2945 O   0  0  0  0  0
    3.9614   -3.7981   -3.3499 O   0  0  0  0  0
   -3.4231   -0.5900   -0.6503 O   0  0  0  0  0
   -3.2075    5.3550    2.8038 O   0  0  0  0  0
    2.8931    0.9465    0.0668 O   0  0  0  0  0
    1.8894    5.0685   -0.4431 O   0  0  0  0  0
  1 27  1  0  0  0
  2 28  1  0  0  0
  3  4  1  0  0  0
  3  5  1  0  0  0
  4  7  1  0  0  0
  4 27  1  0  0  0
  5  8  1  0  0  0
  5 28  1  0  0  0
  6  9  1  0  0  0
  6 10  1  0  0  0
  6 29  1  0  0  0
  7 11  1  0  0  0
  7 46  1  0  0  0
  8 11  1  0  0  0
  8 47  1  0  0  0
  9 15  1  0  0  0
  9 37  1  0  0  0
 10 17  1  0  0  0
 10 38  1  0  0  0
 11 39  1  0  0  0
 12 13  1  0  0  0
 12 14  1  0  0  0
 12 40  1  0  0  0
 13 16  1  0  0  0
 13 41  1  0  0  0
 14 18  1  0  0  0
 14 42  1  0  0  0
 15 20  1  0  0  0
 15 35  1  0  0  0
 16 19  1  0  0  0
 16 36  1  0  0  0
 17 35  1  0  0  0
 17 46  1  0  0  0
 18 36  1  0  0  0
 18 47  1  0  0  0
 19 30  1  0  0  0
 20 43  1  0  0  0
 21 23  1  0  0  0
 21 25  1  0  0  0
 22 24  1  0  0  0
 22 26  1  0  0  0
 23 31  1  0  0  0
 24 32  1  0  0  0
 25  1  1  0  0  0
 25 44  1  0  0  0
 26  2  1  0  0  0
 26 45  1  0  0  0
  1 33  2  0  0  0
  2 34  2  0  0  0
M  CHG  4  29   1  30   1  31   1  32   1
M  END
> <rmsd>
0.514789283

$$$$
ZINC77291611


 47 49  0  0  0  0  0  0  0  0999 V2000
   -1.6502    0.5993    1.5262 C   0  0  0  0  0
    7.9738    5.0683    0.2986 C   0  0  0  0  0
    1.1107    2.3234    2.0551 C   0  0  0  0  0
    0.7082    1.2300    1.0469 C   0  0  0  0  0
    1.1740    3.7323    1.4566 C   0  0  0  0  0
    4.5324   -2.3789    0.7494 C   0  0  0  0  0
    1.5414    1.3085   -0.2407 C   0  0  0  0  0
    1.9889    3.7744    0.1582 C   0  0  0  0  0
    4.7168   -2.7718   -0.7227 C   0  0  0  0  0
    4.1726   -0.8996    0.9151 C   0  0  0  0  0
    1.5360    2.7164   -0.8525 C   0  0  0  0  0
    3.4418    8.3368    0.5152 C   0  0  0  0  0
    4.7450    8.1464   -0.2680 C   0  0  0  0  0
    2.3525    7.3692    0.0472 C   0  0  0  0  0
    3.6099   -2.1900   -1.6193 C   0  0  0  0  0
    5.1548    6.6661   -0.2442 C   0  0  0  0  0
    3.0927   -0.4578   -0.0764 C   0  0  0  0  0
    2.8987    5.9394    0.0564 C   0  0  0  0  0
    6.3823    6.3736   -1.0986 C   0  0  0  0  0
    3.8717   -2.4068   -3.1055 C   0  0  0  0  0
   -4.1098    0.7636    2.1492 C   0  0  0  0  0
    7.2849    2.7419    1.0587 C   0  0  0  0  0
   -3.8796    1.8203    3.2259 C   0  0  0  0  0
    6.6425    3.2307    2.3538 C   0  0  0  0  0
   -3.0729    0.8152    1.0219 C   0  0  0  0  0
    8.4292    3.6399    0.5764 C   0  0  0  0  0
   -0.7062    1.2617    0.7567 N   0  0  0  0  0
    6.9830    5.1500   -0.6824 N   0  0  0  0  0
   -0.2161    4.2131    1.1967 N   0  0  0  0  0
    3.4493   -3.2125    1.3443 N   0  0  0  0  0
   -4.9593    1.7195    4.2391 N   0  0  0  0  0
    5.5201    2.3265    2.7068 N   0  0  0  0  0
   -1.4016   -0.0768    2.5222 O   0  0  0  0  0
    8.4325    6.0339    0.9054 O   0  0  0  0  0
    3.4855   -0.7776   -1.4110 O   0  0  0  0  0
    4.0883    5.8386   -0.7321 O   0  0  0  0  0
    5.9970   -2.2890   -1.1372 O   0  0  0  0  0
    5.3606   -0.1333    0.6901 O   0  0  0  0  0
    2.4188    2.7486   -1.9753 O   0  0  0  0  0
    3.0033    9.6857    0.4122 O   0  0  0  0  0
    4.5577    8.5894   -1.6120 O   0  0  0  0  0
    1.9471    7.7121   -1.2796 O   0  0  0  0  0
    3.9635   -3.7988   -3.3495 O   0  0  0  0  0
   -3.3869   -0.1718    0.0535 O   0  0  0  0  0
    9.4566    3.6519    1.5535 O   0  0  0  0  0
    2.8918    0.9460    0.0658 O   0  0  0  0  0
    1.8947    5.0674   -0.4391 O   0  0  0  0  0
  1 27  1  0  0  0
  2 28  1  0  0  0
  3  4  1  0  0  0
  3  5  1  0  0  0
  4  7  1  0  0  0
  4 27  1  0  0  0
  5  8  1  0  0  0
  5 29  1  0  0  0
  6  9  1  0  0  0
  6 10  1  0  0  0
  6 30  1  0  0  0
  7 11  1  0  0  0
  7 46  1  0  0  0
  8 11  1  0  0  0
  8 47  1  0  0  0
  9 15  1  0  0  0
  9 37  1  0  0  0
 10 17  1  0  0  0
 10 38  1  0  0  0
 11 39  1  0  0  0
 12 13  1  0  0  0
 12 14  1  0  0  0
 12 40  1  0  0  0
 13 16  1  0  0  0
 13 41  1  0  0  0
 14 18  1  0  0  0
 14 42  1  0  0  0
 15 20  1  0  0  0
 15 35  1  0  0  0
 16 19  1  0  0  0
 16 36  1  0  0  0
 17 35  1  0  0  0
 17 46  1  0  0  0
 18 36  1  0  0  0
 18 47  1  0  0  0
 19 28  1  0  0  0
 20 43  1  0  0  0
 21 23  1  0  0  0
 21 25  1  0  0  0
 22 24  1  0  0  0
 22 26  1  0  0  0
 23 31  1  0  0  0
 24 32  1  0  0  0
 25  1  1  0  0  0
 25 44  1  0  0  0
 26  2  1  0  0  0
 26 45  1  0  0  0
  1 33  2  0  0  0
  2 34  2  0  0  0
M  CHG  4  29   1  30   1  31   1  32   1
M  END
> <rmsd>
0.517762601

$$$$
ZINC77291600


 47 49  0  0  0  0  0  0  0  0999 V2000
   -1.6571    0.6288    1.4912 C   0  0  0  0  0
    3.5666   -3.5778    2.6903 C   0  0  0  0  0
    1.0985    2.3622    2.0181 C   0  0  0  0  0
    0.7005    1.2641    1.0133 C   0  0  0  0  0
    4.4800   -2.3965    0.7006 C   0  0  0  0  0
    1.1589    3.7690    1.4147 C   0  0  0  0  0
    1.5354    1.3402   -0.2733 C   0  0  0  0  0
    4.6079   -2.7969   -0.7786 C   0  0  0  0  0
    4.1611   -0.9059    0.8832 C   0  0  0  0  0
    1.9757    3.8087    0.1174 C   0  0  0  0  0
    1.5272    2.7457   -0.8902 C   0  0  0  0  0
    3.4159    8.3761    0.4600 C   0  0  0  0  0
    4.7208    8.1864   -0.3205 C   0  0  0  0  0
    2.3300    7.4040   -0.0062 C   0  0  0  0  0
    3.5090   -2.1679   -1.6509 C   0  0  0  0  0
    5.1345    6.7072   -0.2907 C   0  0  0  0  0
    3.0911   -0.4216   -0.1001 C   0  0  0  0  0
    2.8799    5.9757    0.0090 C   0  0  0  0  0
    6.3642    6.4148   -1.1422 C   0  0  0  0  0
    3.7381   -2.4021   -3.1398 C   0  0  0  0  0
   -3.4889    2.3158    0.9787 C   0  0  0  0  0
    1.2257   -3.5573    3.6822 C   0  0  0  0  0
   -3.4441    2.9568    2.3629 C   0  0  0  0  0
    0.3704   -2.9373    2.5807 C   0  0  0  0  0
   -3.0795    0.8391    0.9841 C   0  0  0  0  0
    2.3753   -4.4151    3.1426 C   0  0  0  0  0
   -0.7136    1.2908    0.7208 N   0  0  0  0  0
    3.4823   -3.2121    1.3570 N   0  0  0  0  0
   -0.2321    4.2452    1.1508 N   0  0  0  0  0
    6.7034    4.9821   -1.0140 N   0  0  0  0  0
   -3.8068    4.3908    2.2424 N   0  0  0  0  0
   -0.1782   -4.0211    1.7283 N   0  0  0  0  0
   -1.4082   -0.0430    2.4902 O   0  0  0  0  0
    4.4756   -3.2614    3.4550 O   0  0  0  0  0
    3.4509   -0.7520   -1.4420 O   0  0  0  0  0
    4.0710    5.8752   -0.7772 O   0  0  0  0  0
    5.9037   -2.4231   -1.2490 O   0  0  0  0  0
    5.3616   -0.1497    0.7032 O   0  0  0  0  0
    2.4117    2.7761   -2.0117 O   0  0  0  0  0
    2.9740    9.7236    0.3512 O   0  0  0  0  0
    4.5345    8.6240   -1.6665 O   0  0  0  0  0
    1.9256    7.7409   -1.3349 O   0  0  0  0  0
    2.5067   -2.2323   -3.8187 O   0  0  0  0  0
   -3.9842    0.1069    1.7941 O   0  0  0  0  0
    2.7903   -5.3250    4.1478 O   0  0  0  0  0
    2.8862    0.9823    0.0367 O   0  0  0  0  0
    1.8790    5.0992   -0.4848 O   0  0  0  0  0
  1 27  1  0  0  0
  2 28  1  0  0  0
  3  4  1  0  0  0
  3  6  1  0  0  0
  4  7  1  0  0  0
  4 27  1  0  0  0
  5  8  1  0  0  0
  5  9  1  0  0  0
  5 28  1  0  0  0
  6 10  1  0  0  0
  6 29  1  0  0  0
  7 11  1  0  0  0
  7 46  1  0  0  0
  8 15  1  0  0  0
  8 37  1  0  0  0
  9 17  1  0  0  0
  9 38  1  0  0  0
 10 11  1  0  0  0
 10 47  1  0  0  0
 11 39  1  0  0  0
 12 13  1  0  0  0
 12 14  1  0  0  0
 12 40  1  0  0  0
 13 16  1  0  0  0
 13 41  1  0  0  0
 14 18  1  0  0  0
 14 42  1  0  0  0
 15 20  1  0  0  0
 15 35  1  0  0  0
 16 19  1  0  0  0
 16 36  1  0  0  0
 17 35  1  0  0  0
 17 46  1  0  0  0
 18 36  1  0  0  0
 18 47  1  0  0  0
 19 30  1  0  0  0
 20 43  1  0  0  0
 21 23  1  0  0  0
 21 25  1  0  0  0
 22 24  1  0  0  0
 22 26  1  0  0  0
 23 31  1  0  0  0
 24 32  1  0  0  0
 25  1  1  0  0  0
 25 44  1  0  0  0
 26  2  1  0  0  0
 26 45  1  0  0  0
  1 33  2  0  0  0
  2 34  2  0  0  0
M  CHG  4  29   1  30   1  31   1  32   1
M  END
> <rmsd>
0.522104621

$$$$
ZINC77291590


 47 49  0  0  0  0  0  0  0  0999 V2000
   -1.4262    0.0832    0.5061 C   0  0  0  0  0
   -0.9204    4.9152    2.2068 C   0  0  0  0  0
    1.0960    2.3317    2.0522 C   0  0  0  0  0
    0.7122    1.2299    1.0484 C   0  0  0  0  0
    1.1334    3.7402    1.4450 C   0  0  0  0  0
    4.5321   -2.3794    0.7490 C   0  0  0  0  0
    1.5425    1.3093   -0.2399 C   0  0  0  0  0
    1.9764    3.7785    0.1607 C   0  0  0  0  0
    4.7159   -2.7722   -0.7232 C   0  0  0  0  0
    4.1732   -0.9000    0.9149 C   0  0  0  0  0
    1.5395    2.7165   -0.8526 C   0  0  0  0  0
    3.8222    8.2549   -0.1218 C   0  0  0  0  0
    5.2124    7.6309   -0.2828 C   0  0  0  0  0
    2.7181    7.3117   -0.6042 C   0  0  0  0  0
    3.6090   -2.1897   -1.6194 C   0  0  0  0  0
    5.2359    6.2385    0.3657 C   0  0  0  0  0
    3.0931   -0.4575   -0.0762 C   0  0  0  0  0
    2.8841    5.9445    0.0634 C   0  0  0  0  0
    6.5522    5.5019    0.1485 C   0  0  0  0  0
    3.8703   -2.4065   -3.1058 C   0  0  0  0  0
   -3.1396    1.2895   -0.9338 C   0  0  0  0  0
   -2.2102    6.3082    0.5156 C   0  0  0  0  0
   -2.5966    0.7273   -2.2445 C   0  0  0  0  0
   -1.4389    7.5910    0.8126 C   0  0  0  0  0
   -2.9054    0.3622    0.2635 C   0  0  0  0  0
   -2.2938    5.3622    1.7184 C   0  0  0  0  0
   -0.7029    1.2367    0.7644 N   0  0  0  0  0
   -0.2062    4.2430    1.2309 N   0  0  0  0  0
    3.4487   -3.2126    1.3441 N   0  0  0  0  0
    6.4893    4.1981    0.8420 N   0  0  0  0  0
   -2.9166    1.6715   -3.3437 N   0  0  0  0  0
   -1.3722    8.4107   -0.4227 N   0  0  0  0  0
   -0.9605   -1.0544    0.4884 O   0  0  0  0  0
   -0.5148    5.1596    3.3413 O   0  0  0  0  0
    3.4854   -0.7774   -1.4109 O   0  0  0  0  0
    4.1916    5.4132   -0.1717 O   0  0  0  0  0
    5.9963   -2.2901   -1.1381 O   0  0  0  0  0
    5.3615   -0.1342    0.6897 O   0  0  0  0  0
    2.4332    2.7503   -1.9666 O   0  0  0  0  0
    3.7640    9.4998   -0.8070 O   0  0  0  0  0
    5.5314    7.5389   -1.6711 O   0  0  0  0  0
    2.8058    7.1594   -2.0224 O   0  0  0  0  0
    2.7956   -1.8474   -3.8394 O   0  0  0  0  0
   -3.4737    0.9460    1.4242 O   0  0  0  0  0
   -2.9843    6.0097    2.7742 O   0  0  0  0  0
    2.8930    0.9465    0.0663 O   0  0  0  0  0
    1.8895    5.0685   -0.4439 O   0  0  0  0  0
  1 27  1  0  0  0
  2 28  1  0  0  0
  3  4  1  0  0  0
  3  5  1  0  0  0
  4  7  1  0  0  0
  4 27  1  0  0  0
  5  8  1  0  0  0
  5 28  1  0  0  0
  6  9  1  0  0  0
  6 10  1  0  0  0
  6 29  1  0  0  0
  7 11  1  0  0  0
  7 46  1  0  0  0
  8 11  1  0  0  0
  8 47  1  0  0  0
  9 15  1  0  0  0
  9 37  1  0  0  0
 10 17  1  0  0  0
 10 38  1  0  0  0
 11 39  1  0  0  0
 12 13  1  0  0  0
 12 14  1  0  0  0
 12 40  1  0  0  0
 13 16  1  0  0  0
 13 41  1  0  0  0
 14 18  1  0  0  0
 14 42  1  0  0  0
 15 20  1  0  0  0
 15 35  1  0  0  0
 16 19  1  0  0  0
 16 36  1  0  0  0
 17 35  1  0  0  0
 17 46  1  0  0  0
 18 36  1  0  0  0
 18 47  1  0  0  0
 19 30  1  0  0  0
 20 43  1  0  0  0
 21 23  1  0  0  0
 21 25  1  0  0  0
 22 24  1  0  0  0
 22 26  1  0  0  0
 23 31  1  0  0  0
 24 32  1  0  0  0
 25  1  1  0  0  0
 25 44  1  0  0  0
 26  2  1  0  0  0
 26 45  1  0  0  0
  1 33  2  0  0  0
  2 34  2  0  0  0
M  CHG  4  29   1  30   1  31   1  32   1
M  END
> <rmsd>
0.51477474

$$$$
ZINC77291611


 47 49  0  0  0  0  0  0  0  0999 V2000
   -1.6505    0.5991    1.5268 C   0  0  0  0  0
    7.9733    5.0684    0.2980 C   0  0  0  0  0
    1.1105    2.3233    2.0553 C   0  0  0  0  0
    0.7079    1.2299    1.0472 C   0  0  0  0  0
    1.1737    3.7322    1.4568 C   0  0  0  0  0
    4.5321   -2.3789    0.7494 C   0  0  0  0  0
    1.5409    1.3084   -0.2405 C   0  0  0  0  0
    1.9884    3.7743    0.1583 C   0  0  0  0  0
    4.7165   -2.7718   -0.7227 C   0  0  0  0  0
    4.1724   -0.8996    0.9150 C   0  0  0  0  0
    1.5354    2.7162   -0.8524 C   0  0  0  0  0
    3.4412    8.3368    0.5150 C   0  0  0  0  0
    4.7443    8.1464   -0.2683 C   0  0  0  0  0
    2.3519    7.3691    0.0471 C   0  0  0  0  0
    3.6094   -2.1901   -1.6192 C   0  0  0  0  0
    5.1542    6.6661   -0.2445 C   0  0  0  0  0
    3.0923   -0.4579   -0.0764 C   0  0  0  0  0
    2.8982    5.9394    0.0563 C   0  0  0  0  0
    6.3816    6.3736   -1.0991 C   0  0  0  0  0
    3.8711   -2.4069   -3.1055 C   0  0  0  0  0
   -3.2693    0.3174   -0.4135 C   0  0  0  0  0
    7.2845    2.7420    1.0582 C   0  0  0  0  0
   -2.9861   -1.1732   -0.5768 C   0  0  0  0  0
    6.6423    3.2308    2.3534 C   0  0  0  0  0
   -3.0732    0.8150    1.0226 C   0  0  0  0  0
    8.4288    3.6400    0.5757 C   0  0  0  0  0
   -0.7066    1.2615    0.7571 N   0  0  0  0  0
    6.9824    5.1500   -0.6829 N   0  0  0  0  0
   -0.2165    4.2129    1.1970 N   0  0  0  0  0
    3.4491   -3.2126    1.3445 N   0  0  0  0  0
   -3.2520   -1.5634   -1.9838 N   0  0  0  0  0
    5.5199    2.3266    2.7065 N   0  0  0  0  0
   -1.4017   -0.0770    2.5228 O   0  0  0  0  0
    8.4320    6.0340    0.9047 O   0  0  0  0  0
    3.4850   -0.7778   -1.4109 O   0  0  0  0  0
    4.0876    5.8385   -0.7323 O   0  0  0  0  0
    5.9966   -2.2890   -1.1373 O   0  0  0  0  0
    5.3602   -0.1333    0.6900 O   0  0  0  0  0
    2.4182    2.7484   -1.9752 O   0  0  0  0  0
    3.0027    9.6857    0.4120 O   0  0  0  0  0
    4.5569    8.5893   -1.6123 O   0  0  0  0  0
    1.9464    7.7119   -1.2796 O   0  0  0  0  0
    2.7963   -1.8485   -3.8394 O   0  0  0  0  0
   -3.3940    2.1948    1.0864 O   0  0  0  0  0
    9.4563    3.6521    1.5528 O   0  0  0  0  0
    2.8914    0.9460    0.0659 O   0  0  0  0  0
    1.8941    5.0673   -0.4390 O   0  0  0  0  0
  1 27  1  0  0  0
  2 28  1  0  0  0
  3  4  1  0  0  0
  3  5  1  0  0  0
  4  7  1  0  0  0
  4 27  1  0  0  0
  5  8  1  0  0  0
  5 29  1  0  0  0
  6  9  1  0  0  0
  6 10  1  0  0  0
  6 30  1  0  0  0
  7 11  1  0  0  0
  7 46  1  0  0  0
  8 11  1  0  0  0
  8 47  1  0  0  0
  9 15  1  0  0  0
  9 37  1  0  0  0
 10 17  1  0  0  0
 10 38  1  0  0  0
 11 39  1  0  0  0
 12 13  1  0  0  0
 12 14  1  0  0  0
 12 40  1  0  0  0
 13 16  1  0  0  0
 13 41  1  0  0  0
 14 18  1  0  0  0
 14 42  1  0  0  0
 15 20  1  0  0  0
 15 35  1  0  0  0
 16 19  1  0  0  0
 16 36  1  0  0  0
 17 35  1  0  0  0
 17 46  1  0  0  0
 18 36  1  0  0  0
 18 47  1  0  0  0
 19 28  1  0  0  0
 20 43  1  0  0  0
 21 23  1  0  0  0
 21 25  1  0  0  0
 22 24  1  0  0  0
 22 26  1  0  0  0
 23 31  1  0  0  0
 24 32  1  0  0  0
 25  1  1  0  0  0
 25 44  1  0  0  0
 26  2  1  0  0  0
 26 45  1  0  0  0
  1 33  2  0  0  0
  2 34  2  0  0  0
M  CHG  4  29   1  30   1  31   1  32   1
M  END
> <rmsd>
0.517502546

$$$$
ZINC77291611


 47 49  0  0  0  0  0  0  0  0999 V2000
   -1.6506    0.5990    1.5262 C   0  0  0  0  0
    7.9733    5.0684    0.2990 C   0  0  0  0  0
    1.1102    2.3232    2.0553 C   0  0  0  0  0
    0.7078    1.2299    1.0470 C   0  0  0  0  0
    1.1735    3.7322    1.4569 C   0  0  0  0  0
    4.5320   -2.3790    0.7493 C   0  0  0  0  0
    1.5410    1.3085   -0.2406 C   0  0  0  0  0
    1.9884    3.7744    0.1585 C   0  0  0  0  0
    4.7165   -2.7717   -0.7229 C   0  0  0  0  0
    4.1723   -0.8997    0.9150 C   0  0  0  0  0
    1.5355    2.7164   -0.8523 C   0  0  0  0  0
    3.4412    8.3368    0.5158 C   0  0  0  0  0
    4.7443    8.1465   -0.2673 C   0  0  0  0  0
    2.3519    7.3692    0.0477 C   0  0  0  0  0
    3.6096   -2.1899   -1.6194 C   0  0  0  0  0
    5.1542    6.6661   -0.2437 C   0  0  0  0  0
    3.0923   -0.4578   -0.0765 C   0  0  0  0  0
    2.8982    5.9394    0.0568 C   0  0  0  0  0
    6.3818    6.3737   -1.0981 C   0  0  0  0  0
    3.8714   -2.4066   -3.1057 C   0  0  0  0  0
   -3.4788    2.2928    1.0227 C   0  0  0  0  0
    7.2844    2.7419    1.0589 C   0  0  0  0  0
   -4.8993    2.5263    0.5161 C   0  0  0  0  0
    6.6420    3.2307    2.3541 C   0  0  0  0  0
   -3.0733    0.8149    1.0219 C   0  0  0  0  0
    8.4287    3.6400    0.5767 C   0  0  0  0  0
   -0.7066    1.2615    0.7568 N   0  0  0  0  0
    6.9825    5.1501   -0.6820 N   0  0  0  0  0
   -0.2166    4.2129    1.1970 N   0  0  0  0  0
    3.4490   -3.2127    1.3441 N   0  0  0  0  0
   -4.9891    2.0729   -0.8940 N   0  0  0  0  0
    5.5196    2.3264    2.7070 N   0  0  0  0  0
   -1.4020   -0.0772    2.5222 O   0  0  0  0  0
    8.4319    6.0340    0.9059 O   0  0  0  0  0
    3.4852   -0.7776   -1.4110 O   0  0  0  0  0
    4.0877    5.8386   -0.7317 O   0  0  0  0  0
    5.9967   -2.2889   -1.1373 O   0  0  0  0  0
    5.3602   -0.1333    0.6902 O   0  0  0  0  0
    2.4184    2.7487   -1.9750 O   0  0  0  0  0
    3.0026    9.6857    0.4129 O   0  0  0  0  0
    4.5571    8.5896   -1.6113 O   0  0  0  0  0
    1.9466    7.7121   -1.2790 O   0  0  0  0  0
    3.9632   -3.7986   -3.3498 O   0  0  0  0  0
   -3.9787    0.0821    1.8307 O   0  0  0  0  0
    9.4561    3.6520    1.5538 O   0  0  0  0  0
    2.8913    0.9460    0.0659 O   0  0  0  0  0
    1.8941    5.0674   -0.4387 O   0  0  0  0  0
  1 27  1  0  0  0
  2 28  1  0  0  0
  3  4  1  0  0  0
  3  5  1  0  0  0
  4  7  1  0  0  0
  4 27  1  0  0  0
  5  8  1  0  0  0
  5 29  1  0  0  0
  6  9  1  0  0  0
  6 10  1  0  0  0
  6 30  1  0  0  0
  7 11  1  0  0  0
  7 46  1  0  0  0
  8 11  1  0  0  0
  8 47  1  0  0  0
  9 15  1  0  0  0
  9 37  1  0  0  0
 10 17  1  0  0  0
 10 38  1  0  0  0
 11 39  1  0  0  0
 12 13  1  0  0  0
 12 14  1  0  0  0
 12 40  1  0  0  0
 13 16  1  0  0  0
 13 41  1  0  0  0
 14 18  1  0  0  0
 14 42  1  0  0  0
 15 20  1  0  0  0
 15 35  1  0  0  0
 16 19  1  0  0  0
 16 36  1  0  0  0
 17 35  1  0  0  0
 17 46  1  0  0  0
 18 36  1  0  0  0
 18 47  1  0  0  0
 19 28  1  0  0  0
 20 43  1  0  0  0
 21 23  1  0  0  0
 21 25  1  0  0  0
 22 24  1  0  0  0
 22 26  1  0  0  0
 23 31  1  0  0  0
 24 32  1  0  0  0
 25  1  1  0  0  0
 25 44  1  0  0  0
 26  2  1  0  0  0
 26 45  1  0  0  0
  1 33  2  0  0  0
  2 34  2  0  0  0
M  CHG  4  29   1  30   1  31   1  32   1
M  END
> <rmsd>
0.517810106

$$$$
ZINC77291600


 47 49  0  0  0  0  0  0  0  0999 V2000
   -1.5694    0.2462    1.0350 C   0  0  0  0  0
    3.5670   -3.5784    2.6905 C   0  0  0  0  0
    1.0989    2.3617    2.0184 C   0  0  0  0  0
    0.7009    1.2635    1.0135 C   0  0  0  0  0
    4.4804   -2.3970    0.7008 C   0  0  0  0  0
    1.1593    3.7685    1.4150 C   0  0  0  0  0
    1.5359    1.3396   -0.2730 C   0  0  0  0  0
    4.6083   -2.7974   -0.7783 C   0  0  0  0  0
    4.1615   -0.9064    0.8834 C   0  0  0  0  0
    1.9762    3.8082    0.1177 C   0  0  0  0  0
    1.5276    2.7452   -0.8900 C   0  0  0  0  0
    3.8137    8.2867   -0.1872 C   0  0  0  0  0
    5.2019    7.6642   -0.3685 C   0  0  0  0  0
    2.7035    7.3428   -0.6547 C   0  0  0  0  0
    3.5095   -2.1684   -1.6507 C   0  0  0  0  0
    5.2359    6.2710    0.2784 C   0  0  0  0  0
    3.0916   -0.4221   -0.0999 C   0  0  0  0  0
    2.8803    5.9752    0.0093 C   0  0  0  0  0
    6.5497    5.5360    0.0419 C   0  0  0  0  0
    3.7386   -2.4026   -3.1396 C   0  0  0  0  0
   -3.5749    1.7774    1.3476 C   0  0  0  0  0
    1.2261   -3.5579    3.6824 C   0  0  0  0  0
   -3.5729    1.6585    2.8691 C   0  0  0  0  0
    1.6218   -2.7143    4.8910 C   0  0  0  0  0
   -3.0146    0.5362    0.6448 C   0  0  0  0  0
    2.3757   -4.4156    3.1429 C   0  0  0  0  0
   -0.7132    1.2903    0.7211 N   0  0  0  0  0
    3.4827   -3.2126    1.3573 N   0  0  0  0  0
   -0.2316    4.2447    1.1511 N   0  0  0  0  0
    6.4978    4.2315    0.7350 N   0  0  0  0  0
   -4.0843    2.9237    3.4523 N   0  0  0  0  0
    0.4603   -1.8879    5.3035 N   0  0  0  0  0
   -1.2351   -0.8005    1.5859 O   0  0  0  0  0
    4.4760   -3.2620    3.4553 O   0  0  0  0  0
    3.4513   -0.7525   -1.4417 O   0  0  0  0  0
    4.1848    5.4453   -0.2449 O   0  0  0  0  0
    5.9041   -2.4237   -1.2488 O   0  0  0  0  0
    5.3620   -0.1502    0.7035 O   0  0  0  0  0
    2.4121    2.7756   -2.0114 O   0  0  0  0  0
    3.7444    9.5321   -0.8704 O   0  0  0  0  0
    5.5012    7.5736   -1.7613 O   0  0  0  0  0
    2.7713    7.1917   -2.0741 O   0  0  0  0  0
    2.6780   -1.8011   -3.8600 O   0  0  0  0  0
   -3.8243   -0.5842    0.9603 O   0  0  0  0  0
    2.7908   -5.3255    4.1481 O   0  0  0  0  0
    2.8866    0.9818    0.0370 O   0  0  0  0  0
    1.8795    5.0987   -0.4846 O   0  0  0  0  0
  1 27  1  0  0  0
  2 28  1  0  0  0
  3  4  1  0  0  0
  3  6  1  0  0  0
  4  7  1  0  0  0
  4 27  1  0  0  0
  5  8  1  0  0  0
  5  9  1  0  0  0
  5 28  1  0  0  0
  6 10  1  0  0  0
  6 29  1  0  0  0
  7 11  1  0  0  0
  7 46  1  0  0  0
  8 15  1  0  0  0
  8 37  1  0  0  0
  9 17  1  0  0  0
  9 38  1  0  0  0
 10 11  1  0  0  0
 10 47  1  0  0  0
 11 39  1  0  0  0
 12 13  1  0  0  0
 12 14  1  0  0  0
 12 40  1  0  0  0
 13 16  1  0  0  0
 13 41  1  0  0  0
 14 18  1  0  0  0
 14 42  1  0  0  0
 15 20  1  0  0  0
 15 35  1  0  0  0
 16 19  1  0  0  0
 16 36  1  0  0  0
 17 35  1  0  0  0
 17 46  1  0  0  0
 18 36  1  0  0  0
 18 47  1  0  0  0
 19 30  1  0  0  0
 20 43  1  0  0  0
 21 23  1  0  0  0
 21 25  1  0  0  0
 22 24  1  0  0  0
 22 26  1  0  0  0
 23 31  1  0  0  0
 24 32  1  0  0  0
 25  1  1  0  0  0
 25 44  1  0  0  0
 26  2  1  0  0  0
 26 45  1  0  0  0
  1 33  2  0  0  0
  2 34  2  0  0  0
M  CHG  4  29   1  30   1  31   1  32   1
M  END
> <rmsd>
0.522104621

$$$$
ZINC77291590


 47 49  0  0  0  0  0  0  0  0999 V2000
   -1.6316    0.5654    1.5448 C   0  0  0  0  0
   -0.5306    5.5835    1.3403 C   0  0  0  0  0
    1.0965    2.3316    2.0532 C   0  0  0  0  0
    0.7126    1.2298    1.0495 C   0  0  0  0  0
    1.1338    3.7401    1.4459 C   0  0  0  0  0
    4.5326   -2.3794    0.7497 C   0  0  0  0  0
    1.5427    1.3092   -0.2390 C   0  0  0  0  0
    1.9766    3.7784    0.1614 C   0  0  0  0  0
    4.7162   -2.7723   -0.7226 C   0  0  0  0  0
    4.1737   -0.9000    0.9156 C   0  0  0  0  0
    1.5395    2.7163   -0.8517 C   0  0  0  0  0
    3.8222    8.2549   -0.1215 C   0  0  0  0  0
    5.2124    7.6309   -0.2828 C   0  0  0  0  0
    2.7180    7.3116   -0.6037 C   0  0  0  0  0
    3.6091   -2.1898   -1.6186 C   0  0  0  0  0
    5.2360    6.2385    0.3658 C   0  0  0  0  0
    3.0934   -0.4576   -0.0754 C   0  0  0  0  0
    2.8842    5.9444    0.0639 C   0  0  0  0  0
    6.5523    5.5020    0.1484 C   0  0  0  0  0
    3.8702   -2.4068   -3.1050 C   0  0  0  0  0
   -3.7453    1.9725    1.6740 C   0  0  0  0  0
   -2.3991    5.4240   -0.3765 C   0  0  0  0  0
   -4.9418    2.4708    0.8685 C   0  0  0  0  0
   -1.6152    6.1504   -1.4660 C   0  0  0  0  0
   -3.0597    0.7546    1.0455 C   0  0  0  0  0
   -2.0012    5.8517    1.0402 C   0  0  0  0  0
   -0.7026    1.2365    0.7657 N   0  0  0  0  0
   -0.2059    4.2429    1.2319 N   0  0  0  0  0
    3.4493   -3.2125    1.3450 N   0  0  0  0  0
    6.4896    4.1982    0.8420 N   0  0  0  0  0
   -5.5621    3.6139    1.5833 N   0  0  0  0  0
   -2.0368    5.6316   -2.7908 N   0  0  0  0  0
   -1.3677   -0.0986    2.5451 O   0  0  0  0  0
    0.2572    6.4837    1.6232 O   0  0  0  0  0
    3.4855   -0.7775   -1.4101 O   0  0  0  0  0
    4.1916    5.4131   -0.1714 O   0  0  0  0  0
    5.9965   -2.2901   -1.1376 O   0  0  0  0  0
    5.3619   -0.1342    0.6901 O   0  0  0  0  0
    2.4330    2.7501   -1.9659 O   0  0  0  0  0
    3.7637    9.4997   -0.8068 O   0  0  0  0  0
    5.5311    7.5388   -1.6712 O   0  0  0  0  0
    2.8055    7.1592   -2.0220 O   0  0  0  0  0
    3.9612   -3.7987   -3.3492 O   0  0  0  0  0
   -3.8193   -0.4080    1.3317 O   0  0  0  0  0
   -2.2737    7.2336    1.2043 O   0  0  0  0  0
    2.8933    0.9464    0.0671 O   0  0  0  0  0
    1.8895    5.0683   -0.4432 O   0  0  0  0  0
  1 27  1  0  0  0
  2 28  1  0  0  0
  3  4  1  0  0  0
  3  5  1  0  0  0
  4  7  1  0  0  0
  4 27  1  0  0  0
  5  8  1  0  0  0
  5 28  1  0  0  0
  6  9  1  0  0  0
  6 10  1  0  0  0
  6 29  1  0  0  0
  7 11  1  0  0  0
  7 46  1  0  0  0
  8 11  1  0  0  0
  8 47  1  0  0  0
  9 15  1  0  0  0
  9 37  1  0  0  0
 10 17  1  0  0  0
 10 38  1  0  0  0
 11 39  1  0  0  0
 12 13  1  0  0  0
 12 14  1  0  0  0
 12 40  1  0  0  0
 13 16  1  0  0  0
 13 41  1  0  0  0
 14 18  1  0  0  0
 14 42  1  0  0  0
 15 20  1  0  0  0
 15 35  1  0  0  0
 16 19  1  0  0  0
 16 36  1  0  0  0
 17 35  1  0  0  0
 17 46  1  0  0  0
 18 36  1  0  0  0
 18 47  1  0  0  0
 19 30  1  0  0  0
 20 43  1  0  0  0
 21 23  1  0  0  0
 21 25  1  0  0  0
 22 24  1  0  0  0
 22 26  1  0  0  0
 23 31  1  0  0  0
 24 32  1  0  0  0
 25  1  1  0  0  0
 25 44  1  0  0  0
 26  2  1  0  0  0
 26 45  1  0  0  0
  1 33  2  0  0  0
  2 34  2  0  0  0
M  CHG  4  29   1  30   1  31   1  32   1
M  END
> <rmsd>
0.514447153

$$$$
ZINC77291611


 47 49  0  0  0  0  0  0  0  0999 V2000
   -1.6505    0.5993    1.5271 C   0  0  0  0  0
    7.3645    4.6437    2.2806 C   0  0  0  0  0
    1.1104    2.3235    2.0558 C   0  0  0  0  0
    0.7078    1.2302    1.0476 C   0  0  0  0  0
    1.1735    3.7325    1.4574 C   0  0  0  0  0
    4.5322   -2.3786    0.7496 C   0  0  0  0  0
    1.5409    1.3087   -0.2401 C   0  0  0  0  0
    1.9883    3.7747    0.1589 C   0  0  0  0  0
    4.7165   -2.7713   -0.7226 C   0  0  0  0  0
    4.1724   -0.8993    0.9153 C   0  0  0  0  0
    1.5353    2.7166   -0.8519 C   0  0  0  0  0
    3.8369    8.2496   -0.1325 C   0  0  0  0  0
    5.2233    7.6240   -0.3183 C   0  0  0  0  0
    2.7236    7.3104   -0.6016 C   0  0  0  0  0
    3.6095   -2.1896   -1.6190 C   0  0  0  0  0
    5.2546    6.2285    0.3233 C   0  0  0  0  0
    3.0923   -0.4575   -0.0760 C   0  0  0  0  0
    2.8980    5.9397    0.0571 C   0  0  0  0  0
    6.5662    5.4909    0.0819 C   0  0  0  0  0
    3.8712   -2.4063   -3.1053 C   0  0  0  0  0
   -4.1100    0.7634    2.1504 C   0  0  0  0  0
    5.9720    2.8821    3.4730 C   0  0  0  0  0
   -3.8798    1.8201    3.2272 C   0  0  0  0  0
    5.1314    3.9002    4.2384 C   0  0  0  0  0
   -3.0733    0.8151    1.0230 C   0  0  0  0  0
    7.3809    3.3876    3.1447 C   0  0  0  0  0
   -0.7066    1.2617    0.7575 N   0  0  0  0  0
    6.7278    4.4587    1.0513 N   0  0  0  0  0
   -0.2166    4.2131    1.1976 N   0  0  0  0  0
    3.4492   -3.2123    1.3446 N   0  0  0  0  0
   -4.9594    1.7192    4.2405 N   0  0  0  0  0
    3.7768    3.3369    4.4618 N   0  0  0  0  0
   -1.4017   -0.0769    2.5231 O   0  0  0  0  0
    7.8510    5.7075    2.6582 O   0  0  0  0  0
    3.4850   -0.7773   -1.4106 O   0  0  0  0  0
    4.2006    5.4074   -0.2013 O   0  0  0  0  0
    5.9966   -2.2885   -1.1371 O   0  0  0  0  0
    5.3602   -0.1329    0.6903 O   0  0  0  0  0
    2.4181    2.7489   -1.9747 O   0  0  0  0  0
    3.7699    9.4976   -0.8110 O   0  0  0  0  0
    5.5200    7.5379   -1.7120 O   0  0  0  0  0
    2.7887    7.1643   -2.0217 O   0  0  0  0  0
    3.9630   -3.7983   -3.3494 O   0  0  0  0  0
   -3.3873   -0.1719    0.0546 O   0  0  0  0  0
    8.0746    3.6529    4.3527 O   0  0  0  0  0
    2.8913    0.9463    0.0663 O   0  0  0  0  0
    1.8939    5.0677   -0.4384 O   0  0  0  0  0
  1 27  1  0  0  0
  2 28  1  0  0  0
  3  4  1  0  0  0
  3  5  1  0  0  0
  4  7  1  0  0  0
  4 27  1  0  0  0
  5  8  1  0  0  0
  5 29  1  0  0  0
  6  9  1  0  0  0
  6 10  1  0  0  0
  6 30  1  0  0  0
  7 11  1  0  0  0
  7 46  1  0  0  0
  8 11  1  0  0  0
  8 47  1  0  0  0
  9 15  1  0  0  0
  9 37  1  0  0  0
 10 17  1  0  0  0
 10 38  1  0  0  0
 11 39  1  0  0  0
 12 13  1  0  0  0
 12 14  1  0  0  0
 12 40  1  0  0  0
 13 16  1  0  0  0
 13 41  1  0  0  0
 14 18  1  0  0  0
 14 42  1  0  0  0
 15 20  1  0  0  0
 15 35  1  0  0  0
 16 19  1  0  0  0
 16 36  1  0  0  0
 17 35  1  0  0  0
 17 46  1  0  0  0
 18 36  1  0  0  0
 18 47  1  0  0  0
 19 28  1  0  0  0
 20 43  1  0  0  0
 21 23  1  0  0  0
 21 25  1  0  0  0
 22 24  1  0  0  0
 22 26  1  0  0  0
 23 31  1  0  0  0
 24 32  1  0  0  0
 25  1  1  0  0  0
 25 44  1  0  0  0
 26  2  1  0  0  0
 26 45  1  0  0  0
  1 33  2  0  0  0
  2 34  2  0  0  0
M  CHG  4  29   1  30   1  31   1  32   1
M  END
> <rmsd>
0.51755017

$$$$
ZINC77291590


 47 49  0  0  0  0  0  0  0  0999 V2000
   -1.4260    0.0833    0.5069 C   0  0  0  0  0
   -0.9200    4.9155    2.2070 C   0  0  0  0  0
    1.0964    2.3319    2.0525 C   0  0  0  0  0
    0.7125    1.2301    1.0489 C   0  0  0  0  0
    1.1337    3.7404    1.4451 C   0  0  0  0  0
    4.5323   -2.3793    0.7495 C   0  0  0  0  0
    1.5426    1.3093   -0.2396 C   0  0  0  0  0
    1.9766    3.7785    0.1607 C   0  0  0  0  0
    4.7159   -2.7723   -0.7228 C   0  0  0  0  0
    4.1735   -0.8999    0.9152 C   0  0  0  0  0
    1.5395    2.7164   -0.8524 C   0  0  0  0  0
    3.8224    8.2549   -0.1225 C   0  0  0  0  0
    5.2126    7.6309   -0.2837 C   0  0  0  0  0
    2.7182    7.3117   -0.6047 C   0  0  0  0  0
    3.6090   -2.1899   -1.6189 C   0  0  0  0  0
    5.2361    6.2385    0.3650 C   0  0  0  0  0
    3.0933   -0.4575   -0.0758 C   0  0  0  0  0
    2.8843    5.9445    0.0630 C   0  0  0  0  0
    6.5524    5.5019    0.1477 C   0  0  0  0  0
    3.8701   -2.4069   -3.1053 C   0  0  0  0  0
   -3.5807    1.0337    1.4650 C   0  0  0  0  0
   -2.2099    6.3083    0.5157 C   0  0  0  0  0
   -5.0614    1.3240    1.2366 C   0  0  0  0  0
   -1.4386    7.5911    0.8125 C   0  0  0  0  0
   -2.9052    0.3623    0.2644 C   0  0  0  0  0
   -2.2934    5.3624    1.7187 C   0  0  0  0  0
   -0.7027    1.2368    0.7650 N   0  0  0  0  0
   -0.2059    4.2432    1.2311 N   0  0  0  0  0
    3.4490   -3.2124    1.3448 N   0  0  0  0  0
    6.4896    4.1982    0.8414 N   0  0  0  0  0
   -5.1979    2.2704    0.1017 N   0  0  0  0  0
   -1.3721    8.4107   -0.4229 N   0  0  0  0  0
   -0.9603   -1.0543    0.4893 O   0  0  0  0  0
   -0.5143    5.1600    3.3413 O   0  0  0  0  0
    3.4853   -0.7776   -1.4105 O   0  0  0  0  0
    4.1917    5.4132   -0.1722 O   0  0  0  0  0
    5.9963   -2.2902   -1.1378 O   0  0  0  0  0
    5.3617   -0.1342    0.6898 O   0  0  0  0  0
    2.4331    2.7501   -1.9666 O   0  0  0  0  0
    3.7641    9.4997   -0.8079 O   0  0  0  0  0
    5.5314    7.5387   -1.6720 O   0  0  0  0  0
    2.8058    7.1591   -2.0229 O   0  0  0  0  0
    3.9610   -3.7989   -3.3494 O   0  0  0  0  0
   -3.5747   -0.8531   -0.0281 O   0  0  0  0  0
   -2.9838    6.0100    2.7744 O   0  0  0  0  0
    2.8932    0.9465    0.0665 O   0  0  0  0  0
    1.8896    5.0684   -0.4441 O   0  0  0  0  0
  1 27  1  0  0  0
  2 28  1  0  0  0
  3  4  1  0  0  0
  3  5  1  0  0  0
  4  7  1  0  0  0
  4 27  1  0  0  0
  5  8  1  0  0  0
  5 28  1  0  0  0
  6  9  1  0  0  0
  6 10  1  0  0  0
  6 29  1  0  0  0
  7 11  1  0  0  0
  7 46  1  0  0  0
  8 11  1  0  0  0
  8 47  1  0  0  0
  9 15  1  0  0  0
  9 37  1  0  0  0
 10 17  1  0  0  0
 10 38  1  0  0  0
 11 39  1  0  0  0
 12 13  1  0  0  0
 12 14  1  0  0  0
 12 40  1  0  0  0
 13 16  1  0  0  0
 13 41  1  0  0  0
 14 18  1  0  0  0
 14 42  1  0  0  0
 15 20  1  0  0  0
 15 35  1  0  0  0
 16 19  1  0  0  0
 16 36  1  0  0  0
 17 35  1  0  0  0
 17 46  1  0  0  0
 18 36  1  0  0  0
 18 47  1  0  0  0
 19 30  1  0  0  0
 20 43  1  0  0  0
 21 23  1  0  0  0
 21 25  1  0  0  0
 22 24  1  0  0  0
 22 26  1  0  0  0
 23 31  1  0  0  0
 24 32  1  0  0  0
 25  1  1  0  0  0
 25 44  1  0  0  0
 26  2  1  0  0  0
 26 45  1  0  0  0
  1 33  2  0  0  0
  2 34  2  0  0  0
M  CHG  4  29   1  30   1  31   1  32   1
M  END
> <rmsd>
0.51443249

$$$$
ZINC77291611


 47 49  0  0  0  0  0  0  0  0999 V2000
   -1.6507    0.5996    1.5260 C   0  0  0  0  0
    7.3644    4.6435    2.2802 C   0  0  0  0  0
    1.1102    2.3237    2.0549 C   0  0  0  0  0
    0.7077    1.2304    1.0467 C   0  0  0  0  0
    1.1735    3.7327    1.4564 C   0  0  0  0  0
    4.5319   -2.3786    0.7492 C   0  0  0  0  0
    1.5409    1.3088   -0.2409 C   0  0  0  0  0
    1.9884    3.7748    0.1580 C   0  0  0  0  0
    4.7163   -2.7714   -0.7229 C   0  0  0  0  0
    4.1721   -0.8993    0.9149 C   0  0  0  0  0
    1.5355    2.7167   -0.8527 C   0  0  0  0  0
    3.8373    8.2495   -0.1333 C   0  0  0  0  0
    5.2237    7.6239   -0.3190 C   0  0  0  0  0
    2.7240    7.3104   -0.6025 C   0  0  0  0  0
    3.6094   -2.1897   -1.6195 C   0  0  0  0  0
    5.2549    6.2284    0.3227 C   0  0  0  0  0
    3.0922   -0.4575   -0.0767 C   0  0  0  0  0
    2.8982    5.9398    0.0562 C   0  0  0  0  0
    6.5664    5.4907    0.0815 C   0  0  0  0  0
    3.8712   -2.4064   -3.1057 C   0  0  0  0  0
   -3.2693    0.3180   -0.4144 C   0  0  0  0  0
    5.9717    2.8821    3.4725 C   0  0  0  0  0
   -2.9862   -1.1726   -0.5778 C   0  0  0  0  0
    5.1310    3.9002    4.2378 C   0  0  0  0  0
   -3.0734    0.8155    1.0216 C   0  0  0  0  0
    7.3807    3.3875    3.1444 C   0  0  0  0  0
   -0.7067    1.2620    0.7564 N   0  0  0  0  0
    6.7279    4.4585    1.0509 N   0  0  0  0  0
   -0.2166    4.2134    1.1965 N   0  0  0  0  0
    3.4488   -3.2122    1.3441 N   0  0  0  0  0
   -3.2520   -1.5627   -1.9848 N   0  0  0  0  0
    3.7764    3.3370    4.4611 N   0  0  0  0  0
   -1.4021   -0.0765    2.5220 O   0  0  0  0  0
    7.8510    5.7073    2.6579 O   0  0  0  0  0
    3.4850   -0.7773   -1.4112 O   0  0  0  0  0
    4.2008    5.4073   -0.2020 O   0  0  0  0  0
    5.9965   -2.2887   -1.1374 O   0  0  0  0  0
    5.3600   -0.1330    0.6899 O   0  0  0  0  0
    2.4183    2.7489   -1.9755 O   0  0  0  0  0
    3.7704    9.4975   -0.8119 O   0  0  0  0  0
    5.5206    7.5377   -1.7126 O   0  0  0  0  0
    2.7892    7.1643   -2.0226 O   0  0  0  0  0
    2.7966   -1.8480   -3.8398 O   0  0  0  0  0
   -3.3941    2.1953    1.0855 O   0  0  0  0  0
    8.0743    3.6528    4.3524 O   0  0  0  0  0
    2.8913    0.9464    0.0656 O   0  0  0  0  0
    1.8942    5.0678   -0.4393 O   0  0  0  0  0
  1 27  1  0  0  0
  2 28  1  0  0  0
  3  4  1  0  0  0
  3  5  1  0  0  0
  4  7  1  0  0  0
  4 27  1  0  0  0
  5  8  1  0  0  0
  5 29  1  0  0  0
  6  9  1  0  0  0
  6 10  1  0  0  0
  6 30  1  0  0  0
  7 11  1  0  0  0
  7 46  1  0  0  0
  8 11  1  0  0  0
  8 47  1  0  0  0
  9 15  1  0  0  0
  9 37  1  0  0  0
 10 17  1  0  0  0
 10 38  1  0  0  0
 11 39  1  0  0  0
 12 13  1  0  0  0
 12 14  1  0  0  0
 12 40  1  0  0  0
 13 16  1  0  0  0
 13 41  1  0  0  0
 14 18  1  0  0  0
 14 42  1  0  0  0
 15 20  1  0  0  0
 15 35  1  0  0  0
 16 19  1  0  0  0
 16 36  1  0  0  0
 17 35  1  0  0  0
 17 46  1  0  0  0
 18 36  1  0  0  0
 18 47  1  0  0  0
 19 28  1  0  0  0
 20 43  1  0  0  0
 21 23  1  0  0  0
 21 25  1  0  0  0
 22 24  1  0  0  0
 22 26  1  0  0  0
 23 31  1  0  0  0
 24 32  1  0  0  0
 25  1  1  0  0  0
 25 44  1  0  0  0
 26  2  1  0  0  0
 26 45  1  0  0  0
  1 33  2  0  0  0
  2 34  2  0  0  0
M  CHG  4  29   1  30   1  31   1  32   1
M  END
> <rmsd>
0.517762601

$$$$
ZINC77291612


 47 49  0  0  0  0  0  0  0  0999 V2000
   -1.6290    0.4718    1.4875 C   0  0  0  0  0
    7.9252    4.9561    0.6681 C   0  0  0  0  0
    1.0347    2.3260    2.0522 C   0  0  0  0  0
    0.6997    1.2162    1.0389 C   0  0  0  0  0
    1.0698    3.7347    1.4520 C   0  0  0  0  0
    4.5317   -2.3793    0.7500 C   0  0  0  0  0
    1.5520    1.3141   -0.2415 C   0  0  0  0  0
    1.9367    3.7824    0.1890 C   0  0  0  0  0
    4.7156   -2.7731   -0.7220 C   0  0  0  0  0
    4.1753   -0.8992    0.9150 C   0  0  0  0  0
    1.5662    2.7209   -0.8559 C   0  0  0  0  0
    3.4511    8.3103    0.6518 C   0  0  0  0  0
    4.7919    8.0986   -0.0589 C   0  0  0  0  0
    2.3714    7.3662    0.1184 C   0  0  0  0  0
    3.6101   -2.1891   -1.6190 C   0  0  0  0  0
    5.1716    6.6104   -0.0210 C   0  0  0  0  0
    3.0964   -0.4553   -0.0768 C   0  0  0  0  0
    2.8889    5.9261    0.1495 C   0  0  0  0  0
    6.4390    6.2984   -0.8078 C   0  0  0  0  0
    3.8717   -2.4071   -3.1052 C   0  0  0  0  0
   -3.5289    2.0828    0.9785 C   0  0  0  0  0
    7.1510    2.6398    1.3752 C   0  0  0  0  0
   -3.5246    2.7076    2.3708 C   0  0  0  0  0
    6.4471    3.1348    2.6355 C   0  0  0  0  0
   -3.0548    0.6255    0.9696 C   0  0  0  0  0
    8.3371    3.5179    0.9624 C   0  0  0  0  0
   -0.7122    1.1843    0.7333 N   0  0  0  0  0
    6.9922    5.0615   -0.3659 N   0  0  0  0  0
   -0.3191    4.1778    1.1448 N   0  0  0  0  0
    3.4466   -3.2102    1.3449 N   0  0  0  0  0
   -3.9491    4.1256    2.2646 N   0  0  0  0  0
    5.2896    2.2507    2.9203 N   0  0  0  0  0
   -1.3595   -0.2010    2.4803 O   0  0  0  0  0
    8.3676    5.9098    1.3050 O   0  0  0  0  0
    3.4889   -0.7764   -1.4112 O   0  0  0  0  0
    4.1184    5.8061   -0.5723 O   0  0  0  0  0
    5.9969   -2.2933   -1.1364 O   0  0  0  0  0
    5.3650   -0.1356    0.6899 O   0  0  0  0  0
    0.2916    3.0166   -1.4211 O   0  0  0  0  0
    3.0447    9.6679    0.5325 O   0  0  0  0  0
    4.6882    8.5516   -1.4086 O   0  0  0  0  0
    2.0469    7.7231   -1.2269 O   0  0  0  0  0
    2.7984   -1.8465   -3.8396 O   0  0  0  0  0
   -3.9334   -0.1559    1.7622 O   0  0  0  0  0
    9.3088    3.5054    1.9951 O   0  0  0  0  0
    2.8987    0.9491    0.0649 O   0  0  0  0  0
    1.8984    5.0766   -0.4057 O   0  0  0  0  0
  1 27  1  0  0  0
  2 28  1  0  0  0
  3  4  1  0  0  0
  3  5  1  0  0  0
  4  7  1  0  0  0
  4 27  1  0  0  0
  5  8  1  0  0  0
  5 29  1  0  0  0
  6  9  1  0  0  0
  6 10  1  0  0  0
  6 30  1  0  0  0
  7 11  1  0  0  0
  7 46  1  0  0  0
  8 11  1  0  0  0
  8 47  1  0  0  0
  9 15  1  0  0  0
  9 37  1  0  0  0
 10 17  1  0  0  0
 10 38  1  0  0  0
 11 39  1  0  0  0
 12 13  1  0  0  0
 12 14  1  0  0  0
 12 40  1  0  0  0
 13 16  1  0  0  0
 13 41  1  0  0  0
 14 18  1  0  0  0
 14 42  1  0  0  0
 15 20  1  0  0  0
 15 35  1  0  0  0
 16 19  1  0  0  0
 16 36  1  0  0  0
 17 35  1  0  0  0
 17 46  1  0  0  0
 18 36  1  0  0  0
 18 47  1  0  0  0
 19 28  1  0  0  0
 20 43  1  0  0  0
 21 23  1  0  0  0
 21 25  1  0  0  0
 22 24  1  0  0  0
 22 26  1  0  0  0
 23 31  1  0  0  0
 24 32  1  0  0  0
 25  1  1  0  0  0
 25 44  1  0  0  0
 26  2  1  0  0  0
 26 45  1  0  0  0
  1 33  2  0  0  0
  2 34  2  0  0  0
M  CHG  4  29   1  30   1  31   1  32   1
M  END
> <rmsd>
0.507365704

$$$$
ZINC77291611


 47 49  0  0  0  0  0  0  0  0999 V2000
   -1.6505    0.5998    1.5257 C   0  0  0  0  0
    6.6448    3.9026   -1.2114 C   0  0  0  0  0
    1.1104    2.3238    2.0547 C   0  0  0  0  0
    0.7079    1.2305    1.0465 C   0  0  0  0  0
    1.1738    3.7328    1.4561 C   0  0  0  0  0
    4.5320   -2.3786    0.7492 C   0  0  0  0  0
    1.5412    1.3089   -0.2411 C   0  0  0  0  0
    1.9887    3.7749    0.1578 C   0  0  0  0  0
    4.7166   -2.7714   -0.7230 C   0  0  0  0  0
    4.1723   -0.8992    0.9148 C   0  0  0  0  0
    1.5358    2.7168   -0.8530 C   0  0  0  0  0
    3.4417    8.3372    0.5147 C   0  0  0  0  0
    4.7449    8.1468   -0.2684 C   0  0  0  0  0
    2.3524    7.3697    0.0467 C   0  0  0  0  0
    3.6097   -2.1896   -1.6195 C   0  0  0  0  0
    5.1547    6.6664   -0.2445 C   0  0  0  0  0
    3.0924   -0.4574   -0.0768 C   0  0  0  0  0
    2.8986    5.9398    0.0560 C   0  0  0  0  0
    6.3822    6.3739   -1.0990 C   0  0  0  0  0
    3.8715   -2.4064   -3.1058 C   0  0  0  0  0
   -3.4786    2.2936    1.0220 C   0  0  0  0  0
    7.6535    1.6014   -1.6001 C   0  0  0  0  0
   -3.4300    2.9294    2.4084 C   0  0  0  0  0
    8.3892    2.0175   -2.8708 C   0  0  0  0  0
   -3.0732    0.8157    1.0213 C   0  0  0  0  0
    7.4531    2.7565   -0.6132 C   0  0  0  0  0
   -0.7065    1.2621    0.7562 N   0  0  0  0  0
    6.9828    5.1503   -0.6827 N   0  0  0  0  0
   -0.2163    4.2135    1.1962 N   0  0  0  0  0
    3.4489   -3.2121    1.3440 N   0  0  0  0  0
   -3.7889    4.3647    2.2937 N   0  0  0  0  0
    8.5761    0.8239   -3.7326 N   0  0  0  0  0
   -1.4019   -0.0763    2.5217 O   0  0  0  0  0
    5.7996    3.7241   -2.0859 O   0  0  0  0  0
    3.4853   -0.7773   -1.4113 O   0  0  0  0  0
    4.0882    5.8389   -0.7325 O   0  0  0  0  0
    5.9967   -2.2887   -1.1374 O   0  0  0  0  0
    5.3603   -0.1329    0.6899 O   0  0  0  0  0
    2.4187    2.7490   -1.9757 O   0  0  0  0  0
    3.0032    9.6861    0.4117 O   0  0  0  0  0
    4.5577    8.5898   -1.6124 O   0  0  0  0  0
    1.9471    7.7125   -1.2801 O   0  0  0  0  0
    3.9633   -3.7985   -3.3498 O   0  0  0  0  0
   -3.9786    0.0830    1.8301 O   0  0  0  0  0
    6.7989    2.2707    0.5472 O   0  0  0  0  0
    2.8915    0.9464    0.0655 O   0  0  0  0  0
    1.8945    5.0679   -0.4396 O   0  0  0  0  0
  1 27  1  0  0  0
  2 28  1  0  0  0
  3  4  1  0  0  0
  3  5  1  0  0  0
  4  7  1  0  0  0
  4 27  1  0  0  0
  5  8  1  0  0  0
  5 29  1  0  0  0
  6  9  1  0  0  0
  6 10  1  0  0  0
  6 30  1  0  0  0
  7 11  1  0  0  0
  7 46  1  0  0  0
  8 11  1  0  0  0
  8 47  1  0  0  0
  9 15  1  0  0  0
  9 37  1  0  0  0
 10 17  1  0  0  0
 10 38  1  0  0  0
 11 39  1  0  0  0
 12 13  1  0  0  0
 12 14  1  0  0  0
 12 40  1  0  0  0
 13 16  1  0  0  0
 13 41  1  0  0  0
 14 18  1  0  0  0
 14 42  1  0  0  0
 15 20  1  0  0  0
 15 35  1  0  0  0
 16 19  1  0  0  0
 16 36  1  0  0  0
 17 35  1  0  0  0
 17 46  1  0  0  0
 18 36  1  0  0  0
 18 47  1  0  0  0
 19 28  1  0  0  0
 20 43  1  0  0  0
 21 23  1  0  0  0
 21 25  1  0  0  0
 22 24  1  0  0  0
 22 26  1  0  0  0
 23 31  1  0  0  0
 24 32  1  0  0  0
 25  1  1  0  0  0
 25 44  1  0  0  0
 26  2  1  0  0  0
 26 45  1  0  0  0
  1 33  2  0  0  0
  2 34  2  0  0  0
M  CHG  4  29   1  30   1  31   1  32   1
M  END
> <rmsd>
0.517748654

$$$$
ZINC77291590


 47 49  0  0  0  0  0  0  0  0999 V2000
   -1.4260    0.0833    0.5061 C   0  0  0  0  0
   -0.9201    4.9154    2.2064 C   0  0  0  0  0
    1.0963    2.3318    2.0520 C   0  0  0  0  0
    0.7124    1.2300    1.0484 C   0  0  0  0  0
    1.1337    3.7403    1.4447 C   0  0  0  0  0
    4.5322   -2.3795    0.7492 C   0  0  0  0  0
    1.5426    1.3092   -0.2400 C   0  0  0  0  0
    1.9767    3.7784    0.1604 C   0  0  0  0  0
    4.7159   -2.7724   -0.7230 C   0  0  0  0  0
    4.1733   -0.9001    0.9150 C   0  0  0  0  0
    1.5397    2.7163   -0.8528 C   0  0  0  0  0
    3.4164    8.3447    0.5190 C   0  0  0  0  0
    4.7319    8.1530   -0.2427 C   0  0  0  0  0
    2.3362    7.3732    0.0384 C   0  0  0  0  0
    3.6091   -2.1900   -1.6192 C   0  0  0  0  0
    5.1439    6.6735   -0.2054 C   0  0  0  0  0
    3.0933   -0.4576   -0.0761 C   0  0  0  0  0
    2.8845    5.9444    0.0629 C   0  0  0  0  0
    6.3851    6.3792   -1.0392 C   0  0  0  0  0
    3.8703   -2.4070   -3.1056 C   0  0  0  0  0
   -3.5808    1.0337    1.4641 C   0  0  0  0  0
   -2.2098    6.3083    0.5151 C   0  0  0  0  0
   -3.5215    0.1916    2.7354 C   0  0  0  0  0
   -3.5771    6.7615    0.0109 C   0  0  0  0  0
   -2.9053    0.3623    0.2635 C   0  0  0  0  0
   -2.2935    5.3624    1.7180 C   0  0  0  0  0
   -0.7027    1.2368    0.7643 N   0  0  0  0  0
   -0.2059    4.2431    1.2306 N   0  0  0  0  0
    3.4488   -3.2126    1.3444 N   0  0  0  0  0
    7.0013    5.1273   -0.5517 N   0  0  0  0  0
   -4.1546    0.9475    3.8446 N   0  0  0  0  0
   -4.3398    5.5741   -0.4480 N   0  0  0  0  0
   -0.9604   -1.0543    0.4885 O   0  0  0  0  0
   -0.5145    5.1599    3.3408 O   0  0  0  0  0
    3.4855   -0.7776   -1.4108 O   0  0  0  0  0
    4.0865    5.8419   -0.7064 O   0  0  0  0  0
    5.9963   -2.2904   -1.1379 O   0  0  0  0  0
    5.3616   -0.1343    0.6897 O   0  0  0  0  0
    2.4334    2.7501   -1.9669 O   0  0  0  0  0
    2.9773    9.6924    0.4028 O   0  0  0  0  0
    4.5652    8.5895   -1.5915 O   0  0  0  0  0
    1.9511    7.7091   -1.2961 O   0  0  0  0  0
    2.7957   -1.8478   -3.8393 O   0  0  0  0  0
   -3.5747   -0.8530   -0.0291 O   0  0  0  0  0
   -2.9839    6.0100    2.7737 O   0  0  0  0  0
    2.8932    0.9464    0.0663 O   0  0  0  0  0
    1.8898    5.0684   -0.4443 O   0  0  0  0  0
  1 27  1  0  0  0
  2 28  1  0  0  0
  3  4  1  0  0  0
  3  5  1  0  0  0
  4  7  1  0  0  0
  4 27  1  0  0  0
  5  8  1  0  0  0
  5 28  1  0  0  0
  6  9  1  0  0  0
  6 10  1  0  0  0
  6 29  1  0  0  0
  7 11  1  0  0  0
  7 46  1  0  0  0
  8 11  1  0  0  0
  8 47  1  0  0  0
  9 15  1  0  0  0
  9 37  1  0  0  0
 10 17  1  0  0  0
 10 38  1  0  0  0
 11 39  1  0  0  0
 12 13  1  0  0  0
 12 14  1  0  0  0
 12 40  1  0  0  0
 13 16  1  0  0  0
 13 41  1  0  0  0
 14 18  1  0  0  0
 14 42  1  0  0  0
 15 20  1  0  0  0
 15 35  1  0  0  0
 16 19  1  0  0  0
 16 36  1  0  0  0
 17 35  1  0  0  0
 17 46  1  0  0  0
 18 36  1  0  0  0
 18 47  1  0  0  0
 19 30  1  0  0  0
 20 43  1  0  0  0
 21 23  1  0  0  0
 21 25  1  0  0  0
 22 24  1  0  0  0
 22 26  1  0  0  0
 23 31  1  0  0  0
 24 32  1  0  0  0
 25  1  1  0  0  0
 25 44  1  0  0  0
 26  2  1  0  0  0
 26 45  1  0  0  0
  1 33  2  0  0  0
  2 34  2  0  0  0
M  CHG  4  29   1  30   1  31   1  32   1
M  END
> <rmsd>
0.51469028

$$$$
ZINC77291611


 47 49  0  0  0  0  0  0  0  0999 V2000
   -1.6503    0.5995    1.5262 C   0  0  0  0  0
    7.3647    4.6436    2.2808 C   0  0  0  0  0
    1.1105    2.3236    2.0553 C   0  0  0  0  0
    0.7081    1.2303    1.0470 C   0  0  0  0  0
    1.1738    3.7326    1.4569 C   0  0  0  0  0
    4.5323   -2.3785    0.7493 C   0  0  0  0  0
    1.5413    1.3089   -0.2406 C   0  0  0  0  0
    1.9887    3.7748    0.1585 C   0  0  0  0  0
    4.7168   -2.7712   -0.7229 C   0  0  0  0  0
    4.1726   -0.8992    0.9151 C   0  0  0  0  0
    1.5358    2.7168   -0.8523 C   0  0  0  0  0
    3.8375    8.2497   -0.1325 C   0  0  0  0  0
    5.2239    7.6241   -0.3182 C   0  0  0  0  0
    2.7242    7.3105   -0.6017 C   0  0  0  0  0
    3.6099   -2.1894   -1.6194 C   0  0  0  0  0
    5.2551    6.2285    0.3234 C   0  0  0  0  0
    3.0926   -0.4574   -0.0764 C   0  0  0  0  0
    2.8985    5.9399    0.0569 C   0  0  0  0  0
    6.5666    5.4909    0.0821 C   0  0  0  0  0
    3.8717   -2.4061   -3.1056 C   0  0  0  0  0
   -3.4785    2.2932    1.0228 C   0  0  0  0  0
    5.9720    2.8820    3.4730 C   0  0  0  0  0
   -4.8990    2.5268    0.5161 C   0  0  0  0  0
    5.1313    3.9001    4.2383 C   0  0  0  0  0
   -3.0730    0.8154    1.0219 C   0  0  0  0  0
    7.3810    3.3875    3.1449 C   0  0  0  0  0
   -0.7063    1.2619    0.7568 N   0  0  0  0  0
    6.7282    4.4586    1.0515 N   0  0  0  0  0
   -0.2163    4.2133    1.1970 N   0  0  0  0  0
    3.4493   -3.2122    1.3442 N   0  0  0  0  0
   -4.9888    2.0733   -0.8940 N   0  0  0  0  0
    3.7767    3.3368    4.4616 N   0  0  0  0  0
   -1.4017   -0.0767    2.5222 O   0  0  0  0  0
    7.8512    5.7074    2.6586 O   0  0  0  0  0
    3.4855   -0.7771   -1.4110 O   0  0  0  0  0
    4.2011    5.4075   -0.2014 O   0  0  0  0  0
    5.9970   -2.2884   -1.1373 O   0  0  0  0  0
    5.3605   -0.1329    0.6902 O   0  0  0  0  0
    2.4187    2.7491   -1.9750 O   0  0  0  0  0
    3.7706    9.4977   -0.8110 O   0  0  0  0  0
    5.5208    7.5380   -1.7118 O   0  0  0  0  0
    2.7895    7.1645   -2.0219 O   0  0  0  0  0
    3.9635   -3.7981   -3.3498 O   0  0  0  0  0
   -3.9784    0.0826    1.8307 O   0  0  0  0  0
    8.0746    3.6527    4.3530 O   0  0  0  0  0
    2.8916    0.9465    0.0659 O   0  0  0  0  0
    1.8944    5.0679   -0.4387 O   0  0  0  0  0
  1 27  1  0  0  0
  2 28  1  0  0  0
  3  4  1  0  0  0
  3  5  1  0  0  0
  4  7  1  0  0  0
  4 27  1  0  0  0
  5  8  1  0  0  0
  5 29  1  0  0  0
  6  9  1  0  0  0
  6 10  1  0  0  0
  6 30  1  0  0  0
  7 11  1  0  0  0
  7 46  1  0  0  0
  8 11  1  0  0  0
  8 47  1  0  0  0
  9 15  1  0  0  0
  9 37  1  0  0  0
 10 17  1  0  0  0
 10 38  1  0  0  0
 11 39  1  0  0  0
 12 13  1  0  0  0
 12 14  1  0  0  0
 12 40  1  0  0  0
 13 16  1  0  0  0
 13 41  1  0  0  0
 14 18  1  0  0  0
 14 42  1  0  0  0
 15 20  1  0  0  0
 15 35  1  0  0  0
 16 19  1  0  0  0
 16 36  1  0  0  0
 17 35  1  0  0  0
 17 46  1  0  0  0
 18 36  1  0  0  0
 18 47  1  0  0  0
 19 28  1  0  0  0
 20 43  1  0  0  0
 21 23  1  0  0  0
 21 25  1  0  0  0
 22 24  1  0  0  0
 22 26  1  0  0  0
 23 31  1  0  0  0
 24 32  1  0  0  0
 25  1  1  0  0  0
 25 44  1  0  0  0
 26  2  1  0  0  0
 26 45  1  0  0  0
  1 33  2  0  0  0
  2 34  2  0  0  0
M  CHG  4  29   1  30   1  31   1  32   1
M  END
> <rmsd>
0.517810106

$$$$
ZINC77273272


 47 51  0  0  0  0  0  0  0  0999 V2000
    6.7297    2.4965   -5.3966 C   0  0  0  0  0
    5.0310    3.6400    3.4479 C   0  0  0  0  0
    1.9626    3.7948    0.1845 C   0  0  0  0  0
    0.9193    1.5307    6.8618 C   0  0  0  0  0
    9.7661    2.5435   -3.8090 C   0  0  0  0  0
    8.6942    1.6316   -4.4017 C   0  0  0  0  0
    7.5141    1.4570   -3.4198 C   0  0  0  0  0
    1.1629    3.7189    1.4890 C   0  0  0  0  0
    1.5183    2.7331   -0.8283 C   0  0  0  0  0
    0.1368    1.8216    5.5799 C   0  0  0  0  0
    4.5315   -2.3783    0.7504 C   0  0  0  0  0
    2.1650    2.4121    7.0024 C   0  0  0  0  0
    1.1366    2.2916    2.0524 C   0  0  0  0  0
    1.5482    1.3113   -0.2486 C   0  0  0  0  0
    4.7186   -2.7733   -0.7209 C   0  0  0  0  0
    4.1719   -0.8987    0.9134 C   0  0  0  0  0
    0.7032    1.2246    1.0314 C   0  0  0  0  0
    2.9638    2.4508    5.6919 C   0  0  0  0  0
    3.6135   -2.1923   -1.6202 C   0  0  0  0  0
    7.8596    2.0927   -2.0704 C   0  0  0  0  0
    1.0678    1.8948    4.3687 C   0  0  0  0  0
    3.0939   -0.4579   -0.0807 C   0  0  0  0  0
    6.1864    3.1598    2.5857 C   0  0  0  0  0
    4.1206    3.4425    5.7431 C   0  0  0  0  0
    3.8780   -2.4112   -3.1058 C   0  0  0  0  0
    6.6747    2.5320   -1.2264 C   0  0  0  0  0
    5.8458    3.0635    1.0994 C   0  0  0  0  0
    7.0512    2.6477    0.2508 C   0  0  0  0  0
    8.0889    2.2211   -5.5797 N   0  0  0  0  0
    6.3942    2.0731   -4.1057 N   0  0  0  0  0
    5.0826    3.1180    4.7428 N   0  0  0  0  0
   -0.2276    4.1989    1.2383 N   0  0  0  0  0
    2.4201    2.7990   -2.0122 N   0  0  0  0  0
   -0.5732    3.1280    5.7260 N   0  0  0  0  0
    3.4471   -3.2108    1.3444 N   0  0  0  0  0
    5.9742    3.0040   -6.2142 O   0  0  0  0  0
    4.1672    4.4168    3.0496 O   0  0  0  0  0
    2.1206    2.8325    4.5975 O   0  0  0  0  0
    3.4890   -0.7797   -1.4140 O   0  0  0  0  0
    1.7765    3.7352    7.3676 O   0  0  0  0  0
    5.9997   -2.2913   -1.1336 O   0  0  0  0  0
    5.3604   -0.1330    0.6896 O   0  0  0  0  0
   -0.6745    1.3919    0.7067 O   0  0  0  0  0
    2.8048   -1.8535   -3.8426 O   0  0  0  0  0
    0.3114    2.2441    3.2130 O   0  0  0  0  0
    2.8930    0.9461    0.0593 O   0  0  0  0  0
    8.9377    3.4822   -2.5063 S   0  0  0  0  0
  1 29  1  0  0  0
  1 30  1  0  0  0
  2 31  1  0  0  0
  3  8  1  0  0  0
  3  9  1  0  0  0
  4 10  1  0  0  0
  4 12  1  0  0  0
  5  6  1  0  0  0
  5 47  1  0  0  0
  6  7  1  0  0  0
  6 29  1  0  0  0
  7 20  1  0  0  0
  7 30  1  0  0  0
  8 13  1  0  0  0
  8 32  1  0  0  0
  9 14  1  0  0  0
  9 33  1  0  0  0
 10 21  1  0  0  0
 10 34  1  0  0  0
 11 15  1  0  0  0
 11 16  1  0  0  0
 11 35  1  0  0  0
 12 18  1  0  0  0
 12 40  1  0  0  0
 13 17  1  0  0  0
 13 45  1  0  0  0
 14 17  1  0  0  0
 14 46  1  0  0  0
 15 19  1  0  0  0
 15 41  1  0  0  0
 16 22  1  0  0  0
 16 42  1  0  0  0
 17 43  1  0  0  0
 18 24  1  0  0  0
 18 38  1  0  0  0
 19 25  1  0  0  0
 19 39  1  0  0  0
 20 26  1  0  0  0
 20 47  1  0  0  0
 21 38  1  0  0  0
 21 45  1  0  0  0
 22 39  1  0  0  0
 22 46  1  0  0  0
 23  2  1  0  0  0
 23 27  1  0  0  0
 24 31  1  0  0  0
 25 44  1  0  0  0
 26 28  1  0  0  0
 27 28  1  0  0  0
  1 36  2  0  0  0
  2 37  2  0  0  0
M  CHG  5  32   1  33   1  34   1  35   1  47   1
M  END
> <rmsd>
0.518203497

$$$$
ZINC77273272


 47 51  0  0  0  0  0  0  0  0999 V2000
    7.4231    0.2947   -3.3250 C   0  0  0  0  0
    5.0312    3.6400    3.4480 C   0  0  0  0  0
    1.9630    3.7949    0.1843 C   0  0  0  0  0
    0.9190    1.5311    6.8616 C   0  0  0  0  0
    9.6568    2.7476   -4.1831 C   0  0  0  0  0
    9.4592    1.4996   -3.3255 C   0  0  0  0  0
    8.6765    1.8347   -2.0361 C   0  0  0  0  0
    1.1632    3.7191    1.4888 C   0  0  0  0  0
    1.5187    2.7331   -0.8285 C   0  0  0  0  0
    0.1366    1.8220    5.5797 C   0  0  0  0  0
    4.5316   -2.3784    0.7508 C   0  0  0  0  0
    2.1648    2.4125    7.0023 C   0  0  0  0  0
    1.1368    2.2918    2.0522 C   0  0  0  0  0
    1.5485    1.3114   -0.2487 C   0  0  0  0  0
    4.7187   -2.7735   -0.7205 C   0  0  0  0  0
    4.1720   -0.8988    0.9136 C   0  0  0  0  0
    0.7034    1.2247    1.0312 C   0  0  0  0  0
    2.9637    2.4511    5.6918 C   0  0  0  0  0
    3.6137   -2.1925   -1.6199 C   0  0  0  0  0
    8.5021    3.3506   -1.9108 C   0  0  0  0  0
    1.0678    1.8951    4.3685 C   0  0  0  0  0
    3.0941   -0.4580   -0.0805 C   0  0  0  0  0
    6.1866    3.1597    2.5859 C   0  0  0  0  0
    4.1205    3.4427    5.7431 C   0  0  0  0  0
    3.8784   -2.4114   -3.1055 C   0  0  0  0  0
    7.3125    3.8108   -1.0847 C   0  0  0  0  0
    6.1619    3.7118    1.1615 C   0  0  0  0  0
    7.3779    3.2675    0.3429 C   0  0  0  0  0
    8.6284    0.5203   -3.9982 N   0  0  0  0  0
    7.4360    1.0963   -2.1781 N   0  0  0  0  0
    5.0825    3.1181    4.7429 N   0  0  0  0  0
   -0.2272    4.1991    1.2379 N   0  0  0  0  0
    2.4207    2.7989   -2.0123 N   0  0  0  0  0
   -0.5733    3.1284    5.7257 N   0  0  0  0  0
    3.4470   -3.2108    1.3447 N   0  0  0  0  0
    6.5295   -0.4668   -3.6692 O   0  0  0  0  0
    4.1674    4.4168    3.0496 O   0  0  0  0  0
    2.1205    2.8327    4.5974 O   0  0  0  0  0
    3.4894   -0.7798   -1.4138 O   0  0  0  0  0
    1.7763    3.7356    7.3674 O   0  0  0  0  0
    5.9999   -2.2916   -1.1331 O   0  0  0  0  0
    5.3606   -0.1331    0.6899 O   0  0  0  0  0
   -0.6743    1.3921    0.7065 O   0  0  0  0  0
    2.6527   -2.2926   -3.8049 O   0  0  0  0  0
    0.3115    2.2444    3.2128 O   0  0  0  0  0
    2.8933    0.9461    0.0593 O   0  0  0  0  0
    8.4007    3.9214   -3.6275 S   0  0  0  0  0
  1 29  1  0  0  0
  1 30  1  0  0  0
  2 31  1  0  0  0
  3  8  1  0  0  0
  3  9  1  0  0  0
  4 10  1  0  0  0
  4 12  1  0  0  0
  5  6  1  0  0  0
  5 47  1  0  0  0
  6  7  1  0  0  0
  6 29  1  0  0  0
  7 20  1  0  0  0
  7 30  1  0  0  0
  8 13  1  0  0  0
  8 32  1  0  0  0
  9 14  1  0  0  0
  9 33  1  0  0  0
 10 21  1  0  0  0
 10 34  1  0  0  0
 11 15  1  0  0  0
 11 16  1  0  0  0
 11 35  1  0  0  0
 12 18  1  0  0  0
 12 40  1  0  0  0
 13 17  1  0  0  0
 13 45  1  0  0  0
 14 17  1  0  0  0
 14 46  1  0  0  0
 15 19  1  0  0  0
 15 41  1  0  0  0
 16 22  1  0  0  0
 16 42  1  0  0  0
 17 43  1  0  0  0
 18 24  1  0  0  0
 18 38  1  0  0  0
 19 25  1  0  0  0
 19 39  1  0  0  0
 20 26  1  0  0  0
 20 47  1  0  0  0
 21 38  1  0  0  0
 21 45  1  0  0  0
 22 39  1  0  0  0
 22 46  1  0  0  0
 23  2  1  0  0  0
 23 27  1  0  0  0
 24 31  1  0  0  0
 25 44  1  0  0  0
 26 28  1  0  0  0
 27 28  1  0  0  0
  1 36  2  0  0  0
  2 37  2  0  0  0
M  CHG  5  32   1  33   1  34   1  35   1  47   1
M  END
> <rmsd>
0.518339694

$$$$
ZINC77273272


 47 51  0  0  0  0  0  0  0  0999 V2000
    8.7871    1.1360   -1.4894 C   0  0  0  0  0
    4.8019    2.9349    5.1188 C   0  0  0  0  0
    1.9629    3.7948    0.1840 C   0  0  0  0  0
    0.1154   -0.2657    6.0146 C   0  0  0  0  0
   10.3873    4.1511   -1.7914 C   0  0  0  0  0
   10.4211    2.7983   -1.0840 C   0  0  0  0  0
    9.4282    2.7697    0.0994 C   0  0  0  0  0
    1.1629    3.7191    1.4884 C   0  0  0  0  0
    1.5189    2.7330   -0.8287 C   0  0  0  0  0
   -0.3716    0.6976    4.9306 C   0  0  0  0  0
    4.5317   -2.3782    0.7512 C   0  0  0  0  0
    1.2634    0.3170    6.8458 C   0  0  0  0  0
    1.1364    2.2920    2.0518 C   0  0  0  0  0
    1.5486    1.3113   -0.2489 C   0  0  0  0  0
    4.7192   -2.7732   -0.7200 C   0  0  0  0  0
    4.1721   -0.8985    0.9140 C   0  0  0  0  0
    0.7034    1.2247    1.0309 C   0  0  0  0  0
    2.3327    0.9481    5.9427 C   0  0  0  0  0
    3.6142   -2.1925   -1.6197 C   0  0  0  0  0
    8.8489    4.1683    0.3285 C   0  0  0  0  0
    0.8030    1.2972    4.1559 C   0  0  0  0  0
    3.0942   -0.4579   -0.0804 C   0  0  0  0  0
    6.1382    2.8642    4.3990 C   0  0  0  0  0
    3.4099    1.6781    6.7370 C   0  0  0  0  0
    3.8792   -2.4115   -3.1050 C   0  0  0  0  0
    7.4895    4.2156    1.0060 C   0  0  0  0  0
    6.1422    3.5622    3.0399 C   0  0  0  0  0
    7.5218    3.5358    2.3749 C   0  0  0  0  0
    9.9636    1.7333   -1.9547 N   0  0  0  0  0
    8.4509    1.7701   -0.2881 N   0  0  0  0  0
    4.5828    1.8269    5.9410 N   0  0  0  0  0
   -0.2275    4.1990    1.2372 N   0  0  0  0  0
    2.4209    2.7989   -2.0125 N   0  0  0  0  0
   -1.1459    1.8034    5.5707 N   0  0  0  0  0
    3.4472   -3.2106    1.3450 N   0  0  0  0  0
    8.1726    0.2249   -2.0269 O   0  0  0  0  0
    4.0197    3.8745    5.0021 O   0  0  0  0  0
    1.7413    1.8994    5.0485 O   0  0  0  0  0
    3.4898   -0.7798   -1.4136 O   0  0  0  0  0
    0.7527    1.2998    7.7448 O   0  0  0  0  0
    6.0003   -2.2914   -1.1324 O   0  0  0  0  0
    5.3606   -0.1328    0.6904 O   0  0  0  0  0
   -0.6744    1.3921    0.7060 O   0  0  0  0  0
    3.9710   -3.8039   -3.3468 O   0  0  0  0  0
    0.3111    2.2445    3.2124 O   0  0  0  0  0
    2.8934    0.9461    0.0594 O   0  0  0  0  0
    8.8098    4.9009   -1.3283 S   0  0  0  0  0
  1 29  1  0  0  0
  1 30  1  0  0  0
  2 31  1  0  0  0
  3  8  1  0  0  0
  3  9  1  0  0  0
  4 10  1  0  0  0
  4 12  1  0  0  0
  5  6  1  0  0  0
  5 47  1  0  0  0
  6  7  1  0  0  0
  6 29  1  0  0  0
  7 20  1  0  0  0
  7 30  1  0  0  0
  8 13  1  0  0  0
  8 32  1  0  0  0
  9 14  1  0  0  0
  9 33  1  0  0  0
 10 21  1  0  0  0
 10 34  1  0  0  0
 11 15  1  0  0  0
 11 16  1  0  0  0
 11 35  1  0  0  0
 12 18  1  0  0  0
 12 40  1  0  0  0
 13 17  1  0  0  0
 13 45  1  0  0  0
 14 17  1  0  0  0
 14 46  1  0  0  0
 15 19  1  0  0  0
 15 41  1  0  0  0
 16 22  1  0  0  0
 16 42  1  0  0  0
 17 43  1  0  0  0
 18 24  1  0  0  0
 18 38  1  0  0  0
 19 25  1  0  0  0
 19 39  1  0  0  0
 20 26  1  0  0  0
 20 47  1  0  0  0
 21 38  1  0  0  0
 21 45  1  0  0  0
 22 39  1  0  0  0
 22 46  1  0  0  0
 23  2  1  0  0  0
 23 27  1  0  0  0
 24 31  1  0  0  0
 25 44  1  0  0  0
 26 28  1  0  0  0
 27 28  1  0  0  0
  1 36  2  0  0  0
  2 37  2  0  0  0
M  CHG  5  32   1  33   1  34   1  35   1  47   1
M  END
> <rmsd>
0.518235087

$$$$
ZINC77273272


 47 51  0  0  0  0  0  0  0  0999 V2000
    8.9709    5.9595   -4.2511 C   0  0  0  0  0
    5.0306    3.6402    3.4480 C   0  0  0  0  0
    1.9625    3.7950    0.1843 C   0  0  0  0  0
    0.9185    1.5313    6.8616 C   0  0  0  0  0
   10.9625    3.5945   -2.7738 C   0  0  0  0  0
    9.9636    3.8405   -3.9023 C   0  0  0  0  0
    8.5129    3.8101   -3.3713 C   0  0  0  0  0
    1.1627    3.7192    1.4888 C   0  0  0  0  0
    1.5182    2.7332   -0.8285 C   0  0  0  0  0
    0.1360    1.8221    5.5797 C   0  0  0  0  0
    4.5310   -2.3782    0.7508 C   0  0  0  0  0
    2.1642    2.4126    7.0023 C   0  0  0  0  0
    1.1362    2.2919    2.0522 C   0  0  0  0  0
    1.5480    1.3115   -0.2487 C   0  0  0  0  0
    4.7182   -2.7733   -0.7205 C   0  0  0  0  0
    4.1714   -0.8987    0.9136 C   0  0  0  0  0
    0.7028    1.2248    1.0312 C   0  0  0  0  0
    2.9631    2.4512    5.6918 C   0  0  0  0  0
    3.6132   -2.1924   -1.6200 C   0  0  0  0  0
    8.5015    3.3507   -1.9108 C   0  0  0  0  0
    1.0672    1.8952    4.3685 C   0  0  0  0  0
    3.0935   -0.4579   -0.0805 C   0  0  0  0  0
    6.1860    3.1598    2.5859 C   0  0  0  0  0
    4.1199    3.4429    5.7431 C   0  0  0  0  0
    3.8778   -2.4113   -3.1055 C   0  0  0  0  0
    7.3119    3.8110   -1.0847 C   0  0  0  0  0
    6.1614    3.7119    1.1615 C   0  0  0  0  0
    7.3773    3.2676    0.3429 C   0  0  0  0  0
   10.1085    5.1719   -4.4574 N   0  0  0  0  0
    8.0358    5.1640   -3.5797 N   0  0  0  0  0
    5.0820    3.1182    4.7429 N   0  0  0  0  0
   -0.2277    4.1992    1.2379 N   0  0  0  0  0
    2.4201    2.7990   -2.0123 N   0  0  0  0  0
   -0.5739    3.1285    5.7257 N   0  0  0  0  0
    3.4464   -3.2107    1.3447 N   0  0  0  0  0
    8.8186    7.1223   -4.5998 O   0  0  0  0  0
    4.1668    4.4169    3.0496 O   0  0  0  0  0
    2.1200    2.8329    4.5974 O   0  0  0  0  0
    3.4888   -0.7797   -1.4139 O   0  0  0  0  0
    1.7757    3.7357    7.3674 O   0  0  0  0  0
    5.9993   -2.2915   -1.1331 O   0  0  0  0  0
    5.3600   -0.1330    0.6899 O   0  0  0  0  0
   -0.6748    1.3922    0.7064 O   0  0  0  0  0
    2.8047   -1.8536   -3.8424 O   0  0  0  0  0
    0.3109    2.2445    3.2128 O   0  0  0  0  0
    2.8927    0.9462    0.0593 O   0  0  0  0  0
   10.0707    3.9676   -1.2472 S   0  0  0  0  0
  1 29  1  0  0  0
  1 30  1  0  0  0
  2 31  1  0  0  0
  3  8  1  0  0  0
  3  9  1  0  0  0
  4 10  1  0  0  0
  4 12  1  0  0  0
  5  6  1  0  0  0
  5 47  1  0  0  0
  6  7  1  0  0  0
  6 29  1  0  0  0
  7 20  1  0  0  0
  7 30  1  0  0  0
  8 13  1  0  0  0
  8 32  1  0  0  0
  9 14  1  0  0  0
  9 33  1  0  0  0
 10 21  1  0  0  0
 10 34  1  0  0  0
 11 15  1  0  0  0
 11 16  1  0  0  0
 11 35  1  0  0  0
 12 18  1  0  0  0
 12 40  1  0  0  0
 13 17  1  0  0  0
 13 45  1  0  0  0
 14 17  1  0  0  0
 14 46  1  0  0  0
 15 19  1  0  0  0
 15 41  1  0  0  0
 16 22  1  0  0  0
 16 42  1  0  0  0
 17 43  1  0  0  0
 18 24  1  0  0  0
 18 38  1  0  0  0
 19 25  1  0  0  0
 19 39  1  0  0  0
 20 26  1  0  0  0
 20 47  1  0  0  0
 21 38  1  0  0  0
 21 45  1  0  0  0
 22 39  1  0  0  0
 22 46  1  0  0  0
 23  2  1  0  0  0
 23 27  1  0  0  0
 24 31  1  0  0  0
 25 44  1  0  0  0
 26 28  1  0  0  0
 27 28  1  0  0  0
  1 36  2  0  0  0
  2 37  2  0  0  0
M  CHG  5  32   1  33   1  34   1  35   1  47   1
M  END
> <rmsd>
0.518339574

$$$$
ZINC77273272


 47 51  0  0  0  0  0  0  0  0999 V2000
   11.2305   -1.9767   -1.3150 C   0  0  0  0  0
    5.9080    2.5750    4.2647 C   0  0  0  0  0
    1.9624    3.7950    0.1850 C   0  0  0  0  0
    0.9192    1.5309    6.8623 C   0  0  0  0  0
    9.8422    0.5870   -3.1156 C   0  0  0  0  0
   11.1250    0.0980   -2.4472 C   0  0  0  0  0
   11.0851    0.3533   -0.9239 C   0  0  0  0  0
    1.1628    3.7191    1.4896 C   0  0  0  0  0
    1.5181    2.7332   -0.8278 C   0  0  0  0  0
    0.1366    1.8217    5.5805 C   0  0  0  0  0
    4.5314   -2.3781    0.7510 C   0  0  0  0  0
    2.1649    2.4123    7.0030 C   0  0  0  0  0
    1.1364    2.2918    2.0529 C   0  0  0  0  0
    1.5481    1.3115   -0.2481 C   0  0  0  0  0
    4.7185   -2.7731   -0.7203 C   0  0  0  0  0
    4.1717   -0.8986    0.9139 C   0  0  0  0  0
    0.7030    1.2247    1.0320 C   0  0  0  0  0
    2.9637    2.4510    5.6924 C   0  0  0  0  0
    3.6133   -2.1922   -1.6197 C   0  0  0  0  0
    9.8561    1.1943   -0.5678 C   0  0  0  0  0
    1.0677    1.8950    4.3692 C   0  0  0  0  0
    3.0937   -0.4578   -0.0801 C   0  0  0  0  0
    6.4675    2.7361    2.8611 C   0  0  0  0  0
    4.1204    3.4427    5.7436 C   0  0  0  0  0
    3.8778   -2.4110   -3.1052 C   0  0  0  0  0
    9.3452    1.0446    0.8555 C   0  0  0  0  0
    7.6515    1.8180    2.5620 C   0  0  0  0  0
    8.1438    1.9529    1.1179 C   0  0  0  0  0
   11.2667   -1.3403   -2.5603 N   0  0  0  0  0
   11.0914   -0.9771   -0.3459 N   0  0  0  0  0
    4.8278    3.4274    4.5064 N   0  0  0  0  0
   -0.2277    4.1990    1.2388 N   0  0  0  0  0
    2.4200    2.7992   -2.0117 N   0  0  0  0  0
   -0.5734    3.1281    5.7266 N   0  0  0  0  0
    3.4469   -3.2106    1.3449 N   0  0  0  0  0
   11.3138   -3.1802   -1.1109 O   0  0  0  0  0
    6.3479    1.7684    5.0796 O   0  0  0  0  0
    2.1204    2.8326    4.5980 O   0  0  0  0  0
    3.4889   -0.7795   -1.4135 O   0  0  0  0  0
    1.7763    3.7354    7.3681 O   0  0  0  0  0
    5.9995   -2.2911   -1.1331 O   0  0  0  0  0
    5.3603   -0.1328    0.6901 O   0  0  0  0  0
   -0.6747    1.3921    0.7073 O   0  0  0  0  0
    2.8047   -1.8533   -3.8420 O   0  0  0  0  0
    0.3113    2.2443    3.2136 O   0  0  0  0  0
    2.8929    0.9463    0.0598 O   0  0  0  0  0
    8.6170    0.6957   -1.7921 S   0  0  0  0  0
  1 29  1  0  0  0
  1 30  1  0  0  0
  2 31  1  0  0  0
  3  8  1  0  0  0
  3  9  1  0  0  0
  4 10  1  0  0  0
  4 12  1  0  0  0
  5  6  1  0  0  0
  5 47  1  0  0  0
  6  7  1  0  0  0
  6 29  1  0  0  0
  7 20  1  0  0  0
  7 30  1  0  0  0
  8 13  1  0  0  0
  8 32  1  0  0  0
  9 14  1  0  0  0
  9 33  1  0  0  0
 10 21  1  0  0  0
 10 34  1  0  0  0
 11 15  1  0  0  0
 11 16  1  0  0  0
 11 35  1  0  0  0
 12 18  1  0  0  0
 12 40  1  0  0  0
 13 17  1  0  0  0
 13 45  1  0  0  0
 14 17  1  0  0  0
 14 46  1  0  0  0
 15 19  1  0  0  0
 15 41  1  0  0  0
 16 22  1  0  0  0
 16 42  1  0  0  0
 17 43  1  0  0  0
 18 24  1  0  0  0
 18 38  1  0  0  0
 19 25  1  0  0  0
 19 39  1  0  0  0
 20 26  1  0  0  0
 20 47  1  0  0  0
 21 38  1  0  0  0
 21 45  1  0  0  0
 22 39  1  0  0  0
 22 46  1  0  0  0
 23  2  1  0  0  0
 23 27  1  0  0  0
 24 31  1  0  0  0
 25 44  1  0  0  0
 26 28  1  0  0  0
 27 28  1  0  0  0
  1 36  2  0  0  0
  2 37  2  0  0  0
M  CHG  5  32   1  33   1  34   1  35   1  47   1
M  END
> <rmsd>
0.518203616

$$$$
ZINC77273272


 47 51  0  0  0  0  0  0  0  0999 V2000
    8.7722    3.2964   -1.7298 C   0  0  0  0  0
    4.8016    2.9348    5.1179 C   0  0  0  0  0
    1.9627    3.7945    0.1831 C   0  0  0  0  0
    0.1151   -0.2657    6.0139 C   0  0  0  0  0
   11.0453    5.6525   -0.7180 C   0  0  0  0  0
   10.7092    4.1634   -0.6839 C   0  0  0  0  0
    9.6461    3.8624    0.3962 C   0  0  0  0  0
    1.1626    3.7189    1.4875 C   0  0  0  0  0
    1.5185    2.7326   -0.8296 C   0  0  0  0  0
   -0.3719    0.6975    4.9298 C   0  0  0  0  0
    4.5314   -2.3785    0.7506 C   0  0  0  0  0
    1.2632    0.3171    6.8450 C   0  0  0  0  0
    1.1362    2.2918    2.0510 C   0  0  0  0  0
    1.5483    1.3110   -0.2497 C   0  0  0  0  0
    4.7188   -2.7737   -0.7206 C   0  0  0  0  0
    4.1718   -0.8989    0.9133 C   0  0  0  0  0
    0.7031    1.2245    1.0301 C   0  0  0  0  0
    2.3325    0.9481    5.9419 C   0  0  0  0  0
    3.6138   -2.1929   -1.6203 C   0  0  0  0  0
    9.3900    5.1145    1.2393 C   0  0  0  0  0
    0.8027    1.2970    4.1551 C   0  0  0  0  0
    3.0938   -0.4583   -0.0811 C   0  0  0  0  0
    6.1379    2.8640    4.3980 C   0  0  0  0  0
    3.4097    1.6781    6.7362 C   0  0  0  0  0
    3.8787   -2.4121   -3.1057 C   0  0  0  0  0
    8.0293    5.1891    1.9117 C   0  0  0  0  0
    6.4109    4.0612    3.4889 C   0  0  0  0  0
    7.7950    3.9944    2.8365 C   0  0  0  0  0
   10.0878    3.7318   -1.9206 N   0  0  0  0  0
    8.4978    3.4025   -0.3617 N   0  0  0  0  0
    4.5825    1.8268    5.9401 N   0  0  0  0  0
   -0.2277    4.1988    1.2363 N   0  0  0  0  0
    2.4206    2.7984   -2.0134 N   0  0  0  0  0
   -1.1461    1.8034    5.5700 N   0  0  0  0  0
    3.4468   -3.2109    1.3444 N   0  0  0  0  0
    8.0079    2.8907   -2.5947 O   0  0  0  0  0
    4.0195    3.8744    5.0011 O   0  0  0  0  0
    1.7410    1.8993    5.0476 O   0  0  0  0  0
    3.4894   -0.7802   -1.4143 O   0  0  0  0  0
    0.7525    1.2999    7.7440 O   0  0  0  0  0
    5.9999   -2.2919   -1.1331 O   0  0  0  0  0
    5.3603   -0.1332    0.6896 O   0  0  0  0  0
   -0.6747    1.3918    0.7052 O   0  0  0  0  0
    2.8057   -1.8544   -3.8428 O   0  0  0  0  0
    0.3108    2.2443    3.2115 O   0  0  0  0  0
    2.8930    0.9458    0.0586 O   0  0  0  0  0
    9.6527    6.4821    0.0802 S   0  0  0  0  0
  1 29  1  0  0  0
  1 30  1  0  0  0
  2 31  1  0  0  0
  3  8  1  0  0  0
  3  9  1  0  0  0
  4 10  1  0  0  0
  4 12  1  0  0  0
  5  6  1  0  0  0
  5 47  1  0  0  0
  6  7  1  0  0  0
  6 29  1  0  0  0
  7 20  1  0  0  0
  7 30  1  0  0  0
  8 13  1  0  0  0
  8 32  1  0  0  0
  9 14  1  0  0  0
  9 33  1  0  0  0
 10 21  1  0  0  0
 10 34  1  0  0  0
 11 15  1  0  0  0
 11 16  1  0  0  0
 11 35  1  0  0  0
 12 18  1  0  0  0
 12 40  1  0  0  0
 13 17  1  0  0  0
 13 45  1  0  0  0
 14 17  1  0  0  0
 14 46  1  0  0  0
 15 19  1  0  0  0
 15 41  1  0  0  0
 16 22  1  0  0  0
 16 42  1  0  0  0
 17 43  1  0  0  0
 18 24  1  0  0  0
 18 38  1  0  0  0
 19 25  1  0  0  0
 19 39  1  0  0  0
 20 26  1  0  0  0
 20 47  1  0  0  0
 21 38  1  0  0  0
 21 45  1  0  0  0
 22 39  1  0  0  0
 22 46  1  0  0  0
 23  2  1  0  0  0
 23 27  1  0  0  0
 24 31  1  0  0  0
 25 44  1  0  0  0
 26 28  1  0  0  0
 27 28  1  0  0  0
  1 36  2  0  0  0
  2 37  2  0  0  0
M  CHG  5  32   1  33   1  34   1  35   1  47   1
M  END
> <rmsd>
0.51811713

$$$$
ZINC77273277


 47 51  0  0  0  0  0  0  0  0999 V2000
    2.7124    4.5706   -4.6185 C   0  0  0  0  0
    3.1691    9.5969   -0.9031 C   0  0  0  0  0
    0.9926    2.3564    2.0429 C   0  0  0  0  0
    6.4211    4.5516   -1.2372 C   0  0  0  0  0
   -0.1202    5.2270   -6.4317 C   0  0  0  0  0
    1.3256    5.6585   -6.1966 C   0  0  0  0  0
    1.4393    6.5413   -4.9336 C   0  0  0  0  0
    0.9146    3.7293    1.3725 C   0  0  0  0  0
    0.7191    1.2162    1.0554 C   0  0  0  0  0
    5.4361    3.7556   -0.3793 C   0  0  0  0  0
    4.5324   -2.3806    0.7479 C   0  0  0  0  0
    6.4362    6.0428   -0.8841 C   0  0  0  0  0
    1.8562    3.8408    0.1668 C   0  0  0  0  0
    1.5572    1.3220   -0.2278 C   0  0  0  0  0
    4.7108   -2.7724   -0.7254 C   0  0  0  0  0
    4.1795   -0.9001    0.9165 C   0  0  0  0  0
    1.5645    2.7285   -0.8549 C   0  0  0  0  0
    5.0088    6.5961   -0.7670 C   0  0  0  0  0
    3.6037   -2.1846   -1.6179 C   0  0  0  0  0
    0.0424    6.8789   -4.4055 C   0  0  0  0  0
    4.0794    4.4575   -0.3004 C   0  0  0  0  0
    3.0985   -0.4522   -0.0712 C   0  0  0  0  0
    1.6921    9.8619   -0.6642 C   0  0  0  0  0
    4.9803    8.0339   -0.2611 C   0  0  0  0  0
    3.8603   -2.4005   -3.1053 C   0  0  0  0  0
   -0.0407    7.2055   -2.9238 C   0  0  0  0  0
    0.7863    8.6974   -1.0611 C   0  0  0  0  0
    0.8529    8.3916   -2.5604 C   0  0  0  0  0
    2.1783    4.5216   -5.9106 N   0  0  0  0  0
    2.2503    5.7514   -4.0267 N   0  0  0  0  0
    3.6337    8.4939   -0.1823 N   0  0  0  0  0
    1.2569    4.7711    2.3794 N   0  0  0  0  0
   -0.7285    1.2121    0.6988 N   0  0  0  0  0
    5.9912    3.6161    1.0009 N   0  0  0  0  0
    3.4474   -3.2104    1.3447 N   0  0  0  0  0
    3.4516    3.7416   -4.1055 O   0  0  0  0  0
    3.8624   10.2679   -1.6629 O   0  0  0  0  0
    4.2340    5.8061    0.1440 O   0  0  0  0  0
    3.4861   -0.7719   -1.4074 O   0  0  0  0  0
    7.1289    6.2360    0.3479 O   0  0  0  0  0
    5.9918   -2.2945   -1.1430 O   0  0  0  0  0
    5.3700   -0.1385    0.6890 O   0  0  0  0  0
    0.3017    2.9652   -1.4713 O   0  0  0  0  0
    2.7859   -1.8363   -3.8354 O   0  0  0  0  0
    3.2199    3.7259    0.5688 O   0  0  0  0  0
    2.9041    0.9523    0.0734 O   0  0  0  0  0
   -0.9508    5.4268   -4.8394 S   0  0  0  0  0
  1 29  1  0  0  0
  1 30  1  0  0  0
  2 31  1  0  0  0
  3  8  1  0  0  0
  3  9  1  0  0  0
  4 10  1  0  0  0
  4 12  1  0  0  0
  5  6  1  0  0  0
  5 47  1  0  0  0
  6  7  1  0  0  0
  6 29  1  0  0  0
  7 20  1  0  0  0
  7 30  1  0  0  0
  8 13  1  0  0  0
  8 32  1  0  0  0
  9 14  1  0  0  0
  9 33  1  0  0  0
 10 21  1  0  0  0
 10 34  1  0  0  0
 11 15  1  0  0  0
 11 16  1  0  0  0
 11 35  1  0  0  0
 12 18  1  0  0  0
 12 40  1  0  0  0
 13 17  1  0  0  0
 13 45  1  0  0  0
 14 17  1  0  0  0
 14 46  1  0  0  0
 15 19  1  0  0  0
 15 41  1  0  0  0
 16 22  1  0  0  0
 16 42  1  0  0  0
 17 43  1  0  0  0
 18 24  1  0  0  0
 18 38  1  0  0  0
 19 25  1  0  0  0
 19 39  1  0  0  0
 20 26  1  0  0  0
 20 47  1  0  0  0
 21 38  1  0  0  0
 21 45  1  0  0  0
 22 39  1  0  0  0
 22 46  1  0  0  0
 23  2  1  0  0  0
 23 27  1  0  0  0
 24 31  1  0  0  0
 25 44  1  0  0  0
 26 28  1  0  0  0
 27 28  1  0  0  0
  1 36  2  0  0  0
  2 37  2  0  0  0
M  CHG  5  32   1  33   1  34   1  35   1  47   1
M  END
> <rmsd>
0.492435157

$$$$
ZINC77273272


 47 51  0  0  0  0  0  0  0  0999 V2000
    6.9403    5.3241   -4.2417 C   0  0  0  0  0
    5.0299    3.6403    3.4478 C   0  0  0  0  0
    1.9621    3.7947    0.1837 C   0  0  0  0  0
    0.9175    1.5310    6.8609 C   0  0  0  0  0
    9.8201    5.6256   -2.1937 C   0  0  0  0  0
    9.1750    5.1955   -3.5018 C   0  0  0  0  0
    8.5239    3.8058   -3.3772 C   0  0  0  0  0
    1.1620    3.7188    1.4881 C   0  0  0  0  0
    1.5180    2.7328   -0.8291 C   0  0  0  0  0
    0.1352    1.8216    5.5790 C   0  0  0  0  0
    4.5312   -2.3782    0.7507 C   0  0  0  0  0
    2.1631    2.4125    7.0018 C   0  0  0  0  0
    1.1357    2.2916    2.0516 C   0  0  0  0  0
    1.5479    1.3112   -0.2492 C   0  0  0  0  0
    4.7187   -2.7732   -0.7206 C   0  0  0  0  0
    4.1715   -0.8986    0.9134 C   0  0  0  0  0
    0.7027    1.2244    1.0305 C   0  0  0  0  0
    2.9621    2.4512    5.6914 C   0  0  0  0  0
    3.6137   -2.1925   -1.6202 C   0  0  0  0  0
    8.5069    3.3491   -1.9144 C   0  0  0  0  0
    1.0665    1.8949    4.3679 C   0  0  0  0  0
    3.0937   -0.4580   -0.0809 C   0  0  0  0  0
    6.1854    3.1602    2.5859 C   0  0  0  0  0
    4.1188    3.4429    5.7428 C   0  0  0  0  0
    3.8785   -2.4115   -3.1057 C   0  0  0  0  0
    7.3116    3.8113   -1.0845 C   0  0  0  0  0
    6.1609    3.7122    1.1615 C   0  0  0  0  0
    7.3769    3.2680    0.3430 C   0  0  0  0  0
    8.0906    6.0577   -3.9127 N   0  0  0  0  0
    7.2133    3.9769   -3.9584 N   0  0  0  0  0
    5.0811    3.1183    4.7427 N   0  0  0  0  0
   -0.2283    4.1986    1.2370 N   0  0  0  0  0
    2.4200    2.7988   -2.0128 N   0  0  0  0  0
   -0.5750    3.1281    5.7248 N   0  0  0  0  0
    3.4468   -3.2109    1.3445 N   0  0  0  0  0
    5.8971    5.7739   -4.6962 O   0  0  0  0  0
    4.1660    4.4169    3.0493 O   0  0  0  0  0
    2.1192    2.8327    4.5969 O   0  0  0  0  0
    3.4891   -0.7798   -1.4142 O   0  0  0  0  0
    1.7744    3.7356    7.3668 O   0  0  0  0  0
    5.9997   -2.2913   -1.1331 O   0  0  0  0  0
    5.3600   -0.1329    0.6898 O   0  0  0  0  0
   -0.6751    1.3917    0.7056 O   0  0  0  0  0
    2.8055   -1.8538   -3.8427 O   0  0  0  0  0
    0.3103    2.2441    3.2120 O   0  0  0  0  0
    2.8927    0.9460    0.0590 O   0  0  0  0  0
   10.0291    4.0929   -1.2621 S   0  0  0  0  0
  1 29  1  0  0  0
  1 30  1  0  0  0
  2 31  1  0  0  0
  3  8  1  0  0  0
  3  9  1  0  0  0
  4 10  1  0  0  0
  4 12  1  0  0  0
  5  6  1  0  0  0
  5 47  1  0  0  0
  6  7  1  0  0  0
  6 29  1  0  0  0
  7 20  1  0  0  0
  7 30  1  0  0  0
  8 13  1  0  0  0
  8 32  1  0  0  0
  9 14  1  0  0  0
  9 33  1  0  0  0
 10 21  1  0  0  0
 10 34  1  0  0  0
 11 15  1  0  0  0
 11 16  1  0  0  0
 11 35  1  0  0  0
 12 18  1  0  0  0
 12 40  1  0  0  0
 13 17  1  0  0  0
 13 45  1  0  0  0
 14 17  1  0  0  0
 14 46  1  0  0  0
 15 19  1  0  0  0
 15 41  1  0  0  0
 16 22  1  0  0  0
 16 42  1  0  0  0
 17 43  1  0  0  0
 18 24  1  0  0  0
 18 38  1  0  0  0
 19 25  1  0  0  0
 19 39  1  0  0  0
 20 26  1  0  0  0
 20 47  1  0  0  0
 21 38  1  0  0  0
 21 45  1  0  0  0
 22 39  1  0  0  0
 22 46  1  0  0  0
 23  2  1  0  0  0
 23 27  1  0  0  0
 24 31  1  0  0  0
 25 44  1  0  0  0
 26 28  1  0  0  0
 27 28  1  0  0  0
  1 36  2  0  0  0
  2 37  2  0  0  0
M  CHG  5  32   1  33   1  34   1  35   1  47   1
M  END
> <rmsd>
0.518032312

$$$$
ZINC77273272


 47 51  0  0  0  0  0  0  0  0999 V2000
   12.2339    3.8023   -0.3472 C   0  0  0  0  0
    5.9080    2.5753    4.2642 C   0  0  0  0  0
    1.9629    3.7953    0.1842 C   0  0  0  0  0
    0.9189    1.5316    6.8615 C   0  0  0  0  0
   11.7447    1.0875   -2.3801 C   0  0  0  0  0
   11.3203    2.5313   -2.1212 C   0  0  0  0  0
   10.2894    2.6058   -0.9728 C   0  0  0  0  0
    1.1631    3.7195    1.4886 C   0  0  0  0  0
    1.5186    2.7335   -0.8286 C   0  0  0  0  0
    0.1364    1.8224    5.5795 C   0  0  0  0  0
    4.5314   -2.3779    0.7506 C   0  0  0  0  0
    2.1646    2.4129    7.0022 C   0  0  0  0  0
    1.1366    2.2922    2.0520 C   0  0  0  0  0
    1.5484    1.3118   -0.2488 C   0  0  0  0  0
    4.7186   -2.7730   -0.7206 C   0  0  0  0  0
    4.1718   -0.8983    0.9135 C   0  0  0  0  0
    0.7033    1.2252    1.0311 C   0  0  0  0  0
    2.9635    2.4515    5.6917 C   0  0  0  0  0
    3.6136   -2.1920   -1.6201 C   0  0  0  0  0
    9.8565    1.1941   -0.5678 C   0  0  0  0  0
    1.0677    1.8955    4.3683 C   0  0  0  0  0
    3.0939   -0.4576   -0.0807 C   0  0  0  0  0
    6.4676    2.7363    2.8607 C   0  0  0  0  0
    4.1203    3.4432    5.7430 C   0  0  0  0  0
    3.8782   -2.4110   -3.1056 C   0  0  0  0  0
    9.3454    1.0445    0.8554 C   0  0  0  0  0
    7.6516    1.8181    2.5617 C   0  0  0  0  0
    8.1440    1.9529    1.1177 C   0  0  0  0  0
   12.4319    3.3341   -1.6505 N   0  0  0  0  0
   10.9781    3.3454    0.0679 N   0  0  0  0  0
    4.8278    3.4277    4.5058 N   0  0  0  0  0
   -0.2273    4.1995    1.2377 N   0  0  0  0  0
    2.4205    2.7994   -2.0125 N   0  0  0  0  0
   -0.5735    3.1288    5.7255 N   0  0  0  0  0
    3.4469   -3.2104    1.3445 N   0  0  0  0  0
   13.0088    4.4893    0.3042 O   0  0  0  0  0
    6.3478    1.7687    5.0792 O   0  0  0  0  0
    2.1204    2.8332    4.5972 O   0  0  0  0  0
    3.4892   -0.7794   -1.4140 O   0  0  0  0  0
    1.7761    3.7361    7.3672 O   0  0  0  0  0
    5.9997   -2.2911   -1.1333 O   0  0  0  0  0
    5.3604   -0.1327    0.6898 O   0  0  0  0  0
   -0.6744    1.3926    0.7063 O   0  0  0  0  0
    2.8051   -1.8533   -3.8425 O   0  0  0  0  0
    0.3114    2.2448    3.2126 O   0  0  0  0  0
    2.8932    0.9465    0.0592 O   0  0  0  0  0
   11.3284    0.1823   -0.8726 S   0  0  0  0  0
  1 29  1  0  0  0
  1 30  1  0  0  0
  2 31  1  0  0  0
  3  8  1  0  0  0
  3  9  1  0  0  0
  4 10  1  0  0  0
  4 12  1  0  0  0
  5  6  1  0  0  0
  5 47  1  0  0  0
  6  7  1  0  0  0
  6 29  1  0  0  0
  7 20  1  0  0  0
  7 30  1  0  0  0
  8 13  1  0  0  0
  8 32  1  0  0  0
  9 14  1  0  0  0
  9 33  1  0  0  0
 10 21  1  0  0  0
 10 34  1  0  0  0
 11 15  1  0  0  0
 11 16  1  0  0  0
 11 35  1  0  0  0
 12 18  1  0  0  0
 12 40  1  0  0  0
 13 17  1  0  0  0
 13 45  1  0  0  0
 14 17  1  0  0  0
 14 46  1  0  0  0
 15 19  1  0  0  0
 15 41  1  0  0  0
 16 22  1  0  0  0
 16 42  1  0  0  0
 17 43  1  0  0  0
 18 24  1  0  0  0
 18 38  1  0  0  0
 19 25  1  0  0  0
 19 39  1  0  0  0
 20 26  1  0  0  0
 20 47  1  0  0  0
 21 38  1  0  0  0
 21 45  1  0  0  0
 22 39  1  0  0  0
 22 46  1  0  0  0
 23  2  1  0  0  0
 23 27  1  0  0  0
 24 31  1  0  0  0
 25 44  1  0  0  0
 26 28  1  0  0  0
 27 28  1  0  0  0
  1 36  2  0  0  0
  2 37  2  0  0  0
M  CHG  5  32   1  33   1  34   1  35   1  47   1
M  END
> <rmsd>
0.518339694

$$$$
ZINC77273286


 47 51  0  0  0  0  0  0  0  0999 V2000
    4.3556    5.6140   -4.2089 C   0  0  0  0  0
    1.6960    9.4508   -0.0276 C   0  0  0  0  0
    1.0221    2.3397    2.0482 C   0  0  0  0  0
    6.4043    5.7340    0.3712 C   0  0  0  0  0
    2.2975    5.9212   -6.9313 C   0  0  0  0  0
    3.3210    6.6526   -6.0658 C   0  0  0  0  0
    2.6697    7.1791   -4.7675 C   0  0  0  0  0
    0.9882    3.7275    1.3982 C   0  0  0  0  0
    0.7186    1.2154    1.0468 C   0  0  0  0  0
    5.5267    4.5091    0.6348 C   0  0  0  0  0
    4.5324   -2.3802    0.7491 C   0  0  0  0  0
    5.7723    7.0314    0.8866 C   0  0  0  0  0
    1.9176    3.8252    0.1827 C   0  0  0  0  0
    1.5537    1.3206   -0.2366 C   0  0  0  0  0
    4.7144   -2.7735   -0.7233 C   0  0  0  0  0
    4.1773   -0.8999    0.9152 C   0  0  0  0  0
    1.5337    2.7381   -0.8338 C   0  0  0  0  0
    4.2972    7.1288    0.4722 C   0  0  0  0  0
    3.6083   -2.1882   -1.6187 C   0  0  0  0  0
    1.1529    6.9794   -4.8264 C   0  0  0  0  0
    4.0744    4.7732    0.2342 C   0  0  0  0  0
    3.0977   -0.4548   -0.0751 C   0  0  0  0  0
    0.2360    9.2360   -0.3897 C   0  0  0  0  0
    3.5927    8.3258    1.1005 C   0  0  0  0  0
    3.8681   -2.4056   -3.1052 C   0  0  0  0  0
    0.4487    6.8805   -3.4834 C   0  0  0  0  0
   -0.0054    8.0119   -1.2715 C   0  0  0  0  0
    0.6836    8.1300   -2.6344 C   0  0  0  0  0
    4.3600    5.7548   -5.6007 N   0  0  0  0  0
    3.3341    6.4333   -3.7156 N   0  0  0  0  0
    2.2338    8.3683    0.6730 N   0  0  0  0  0
    1.3764    4.7411    2.4161 N   0  0  0  0  0
   -0.7296    1.2506    0.6937 N   0  0  0  0  0
    5.5758    4.1763    2.0906 N   0  0  0  0  0
    3.4473   -3.2107    1.3449 N   0  0  0  0  0
    5.1089    4.9133   -3.5467 O   0  0  0  0  0
    2.3293   10.4557   -0.3397 O   0  0  0  0  0
    3.5818    5.9527    0.8714 O   0  0  0  0  0
    3.4883   -0.7756   -1.4101 O   0  0  0  0  0
    5.8764    7.0828    2.3083 O   0  0  0  0  0
    5.9955   -2.2945   -1.1388 O   0  0  0  0  0
    5.3672   -0.1370    0.6893 O   0  0  0  0  0
    2.4045    2.7852   -1.9614 O   0  0  0  0  0
    2.7944   -1.8439   -3.8382 O   0  0  0  0  0
    3.2794    3.6391    0.5682 O   0  0  0  0  0
    2.9011    0.9497    0.0675 O   0  0  0  0  0
    0.9493    5.4743   -5.8145 S   0  0  0  0  0
  1 29  1  0  0  0
  1 30  1  0  0  0
  2 31  1  0  0  0
  3  8  1  0  0  0
  3  9  1  0  0  0
  4 10  1  0  0  0
  4 12  1  0  0  0
  5  6  1  0  0  0
  5 47  1  0  0  0
  6  7  1  0  0  0
  6 29  1  0  0  0
  7 20  1  0  0  0
  7 30  1  0  0  0
  8 13  1  0  0  0
  8 32  1  0  0  0
  9 14  1  0  0  0
  9 33  1  0  0  0
 10 21  1  0  0  0
 10 34  1  0  0  0
 11 15  1  0  0  0
 11 16  1  0  0  0
 11 35  1  0  0  0
 12 18  1  0  0  0
 12 40  1  0  0  0
 13 17  1  0  0  0
 13 45  1  0  0  0
 14 17  1  0  0  0
 14 46  1  0  0  0
 15 19  1  0  0  0
 15 41  1  0  0  0
 16 22  1  0  0  0
 16 42  1  0  0  0
 17 43  1  0  0  0
 18 24  1  0  0  0
 18 38  1  0  0  0
 19 25  1  0  0  0
 19 39  1  0  0  0
 20 26  1  0  0  0
 20 47  1  0  0  0
 21 38  1  0  0  0
 21 45  1  0  0  0
 22 39  1  0  0  0
 22 46  1  0  0  0
 23  2  1  0  0  0
 23 27  1  0  0  0
 24 31  1  0  0  0
 25 44  1  0  0  0
 26 28  1  0  0  0
 27 28  1  0  0  0
  1 36  2  0  0  0
  2 37  2  0  0  0
M  CHG  5  32   1  33   1  34   1  35   1  47   1
M  END
> <rmsd>
0.500526309

$$$$
ZINC77273286


 47 51  0  0  0  0  0  0  0  0999 V2000
   -0.6073    4.1098   -6.6898 C   0  0  0  0  0
    2.4338    9.5445   -0.7177 C   0  0  0  0  0
    1.0218    2.3395    2.0486 C   0  0  0  0  0
    6.4037    5.7343    0.3716 C   0  0  0  0  0
    2.3962    5.6835   -7.1840 C   0  0  0  0  0
    1.7410    4.3973   -6.6861 C   0  0  0  0  0
    1.2106    4.5705   -5.2453 C   0  0  0  0  0
    0.9878    3.7273    1.3987 C   0  0  0  0  0
    0.7184    1.2153    1.0471 C   0  0  0  0  0
    5.5262    4.5093    0.6352 C   0  0  0  0  0
    4.5323   -2.3801    0.7489 C   0  0  0  0  0
    5.7717    7.0316    0.8872 C   0  0  0  0  0
    1.9171    3.8252    0.1832 C   0  0  0  0  0
    1.5534    1.3206   -0.2363 C   0  0  0  0  0
    4.7143   -2.7732   -0.7236 C   0  0  0  0  0
    4.1771   -0.8999    0.9152 C   0  0  0  0  0
    1.5332    2.7381   -0.8334 C   0  0  0  0  0
    4.2965    7.1289    0.4729 C   0  0  0  0  0
    3.6081   -2.1879   -1.6189 C   0  0  0  0  0
    1.6716    5.9157   -4.6777 C   0  0  0  0  0
    4.0739    4.7734    0.2347 C   0  0  0  0  0
    3.0975   -0.4546   -0.0751 C   0  0  0  0  0
    1.0656    9.6916   -1.3621 C   0  0  0  0  0
    3.5920    8.3258    1.1013 C   0  0  0  0  0
    3.8679   -2.4052   -3.1054 C   0  0  0  0  0
    0.8032    6.4980   -3.5750 C   0  0  0  0  0
    0.5063    8.3851   -1.9228 C   0  0  0  0  0
    1.3707    7.8180   -3.0530 C   0  0  0  0  0
    0.5596    4.0701   -7.4602 N   0  0  0  0  0
   -0.2272    4.4370   -5.3834 N   0  0  0  0  0
    2.4222    8.6478    0.3536 N   0  0  0  0  0
    1.3760    4.7409    2.4167 N   0  0  0  0  0
   -0.7299    1.2504    0.6940 N   0  0  0  0  0
    5.5754    4.1764    2.0910 N   0  0  0  0  0
    3.4473   -3.2107    1.3447 N   0  0  0  0  0
   -1.7453    3.8911   -7.0822 O   0  0  0  0  0
    3.4352   10.1342   -1.1148 O   0  0  0  0  0
    3.5812    5.9528    0.8720 O   0  0  0  0  0
    3.4880   -0.7753   -1.4101 O   0  0  0  0  0
    5.8758    7.0828    2.3090 O   0  0  0  0  0
    5.9953   -2.2941   -1.1391 O   0  0  0  0  0
    5.3670   -0.1369    0.6893 O   0  0  0  0  0
    2.4040    2.7854   -1.9610 O   0  0  0  0  0
    2.7941   -1.8434   -3.8383 O   0  0  0  0  0
    3.2790    3.6392    0.5687 O   0  0  0  0  0
    2.9008    0.9497    0.0677 O   0  0  0  0  0
    1.7467    6.9985   -6.1286 S   0  0  0  0  0
  1 29  1  0  0  0
  1 30  1  0  0  0
  2 31  1  0  0  0
  3  8  1  0  0  0
  3  9  1  0  0  0
  4 10  1  0  0  0
  4 12  1  0  0  0
  5  6  1  0  0  0
  5 47  1  0  0  0
  6  7  1  0  0  0
  6 29  1  0  0  0
  7 20  1  0  0  0
  7 30  1  0  0  0
  8 13  1  0  0  0
  8 32  1  0  0  0
  9 14  1  0  0  0
  9 33  1  0  0  0
 10 21  1  0  0  0
 10 34  1  0  0  0
 11 15  1  0  0  0
 11 16  1  0  0  0
 11 35  1  0  0  0
 12 18  1  0  0  0
 12 40  1  0  0  0
 13 17  1  0  0  0
 13 45  1  0  0  0
 14 17  1  0  0  0
 14 46  1  0  0  0
 15 19  1  0  0  0
 15 41  1  0  0  0
 16 22  1  0  0  0
 16 42  1  0  0  0
 17 43  1  0  0  0
 18 24  1  0  0  0
 18 38  1  0  0  0
 19 25  1  0  0  0
 19 39  1  0  0  0
 20 26  1  0  0  0
 20 47  1  0  0  0
 21 38  1  0  0  0
 21 45  1  0  0  0
 22 39  1  0  0  0
 22 46  1  0  0  0
 23  2  1  0  0  0
 23 27  1  0  0  0
 24 31  1  0  0  0
 25 44  1  0  0  0
 26 28  1  0  0  0
 27 28  1  0  0  0
  1 36  2  0  0  0
  2 37  2  0  0  0
M  CHG  5  32   1  33   1  34   1  35   1  47   1
M  END
> <rmsd>
0.500527382

$$$$
